
---------- Begin Simulation Statistics ----------
simSeconds                                   0.001793                       # Number of seconds simulated (Second)
simTicks                                   1793427000                       # Number of ticks simulated (Tick)
finalTick                                  1793427000                       # Number of ticks from beginning of simulation (restored from checkpoints and never reset) (Tick)
simFreq                                  1000000000000                       # The number of ticks per simulated second ((Tick/Second))
hostSeconds                                     11.18                       # Real time elapsed on the host (Second)
hostTickRate                                160459243                       # The number of ticks simulated per host second (ticks/s) ((Tick/Second))
hostMemory                                    1181572                       # Number of bytes of host memory used (Byte)
simInsts                                      2511762                       # Number of instructions simulated (Count)
simOps                                        4197138                       # Number of ops (including micro ops) simulated (Count)
hostInstRate                                   224727                       # Simulator instruction rate (inst/s) ((Count/Second))
hostOpRate                                     375518                       # Simulator op (including micro ops) rate (op/s) ((Count/Second))
system.L2cache.demandHits::cpu.inst                 4                       # number of demand (read+write) hits (Count)
system.L2cache.demandHits::cpu.data                42                       # number of demand (read+write) hits (Count)
system.L2cache.demandHits::total                   46                       # number of demand (read+write) hits (Count)
system.L2cache.overallHits::cpu.inst                4                       # number of overall hits (Count)
system.L2cache.overallHits::cpu.data               42                       # number of overall hits (Count)
system.L2cache.overallHits::total                  46                       # number of overall hits (Count)
system.L2cache.demandMisses::cpu.inst             480                       # number of demand (read+write) misses (Count)
system.L2cache.demandMisses::cpu.data            1265                       # number of demand (read+write) misses (Count)
system.L2cache.demandMisses::total               1745                       # number of demand (read+write) misses (Count)
system.L2cache.overallMisses::cpu.inst            480                       # number of overall misses (Count)
system.L2cache.overallMisses::cpu.data           1265                       # number of overall misses (Count)
system.L2cache.overallMisses::total              1745                       # number of overall misses (Count)
system.L2cache.demandMissLatency::cpu.inst     47770000                       # number of demand (read+write) miss ticks (Tick)
system.L2cache.demandMissLatency::cpu.data    128610000                       # number of demand (read+write) miss ticks (Tick)
system.L2cache.demandMissLatency::total     176380000                       # number of demand (read+write) miss ticks (Tick)
system.L2cache.overallMissLatency::cpu.inst     47770000                       # number of overall miss ticks (Tick)
system.L2cache.overallMissLatency::cpu.data    128610000                       # number of overall miss ticks (Tick)
system.L2cache.overallMissLatency::total    176380000                       # number of overall miss ticks (Tick)
system.L2cache.demandAccesses::cpu.inst           484                       # number of demand (read+write) accesses (Count)
system.L2cache.demandAccesses::cpu.data          1307                       # number of demand (read+write) accesses (Count)
system.L2cache.demandAccesses::total             1791                       # number of demand (read+write) accesses (Count)
system.L2cache.overallAccesses::cpu.inst          484                       # number of overall (read+write) accesses (Count)
system.L2cache.overallAccesses::cpu.data         1307                       # number of overall (read+write) accesses (Count)
system.L2cache.overallAccesses::total            1791                       # number of overall (read+write) accesses (Count)
system.L2cache.demandMissRate::cpu.inst      0.991736                       # miss rate for demand accesses (Ratio)
system.L2cache.demandMissRate::cpu.data      0.967865                       # miss rate for demand accesses (Ratio)
system.L2cache.demandMissRate::total         0.974316                       # miss rate for demand accesses (Ratio)
system.L2cache.overallMissRate::cpu.inst     0.991736                       # miss rate for overall accesses (Ratio)
system.L2cache.overallMissRate::cpu.data     0.967865                       # miss rate for overall accesses (Ratio)
system.L2cache.overallMissRate::total        0.974316                       # miss rate for overall accesses (Ratio)
system.L2cache.demandAvgMissLatency::cpu.inst 99520.833333                       # average overall miss latency ((Cycle/Count))
system.L2cache.demandAvgMissLatency::cpu.data 101667.984190                       # average overall miss latency ((Cycle/Count))
system.L2cache.demandAvgMissLatency::total 101077.363897                       # average overall miss latency ((Cycle/Count))
system.L2cache.overallAvgMissLatency::cpu.inst 99520.833333                       # average overall miss latency ((Cycle/Count))
system.L2cache.overallAvgMissLatency::cpu.data 101667.984190                       # average overall miss latency ((Cycle/Count))
system.L2cache.overallAvgMissLatency::total 101077.363897                       # average overall miss latency ((Cycle/Count))
system.L2cache.blockedCycles::no_mshrs              0                       # number of cycles access was blocked (Cycle)
system.L2cache.blockedCycles::no_targets            0                       # number of cycles access was blocked (Cycle)
system.L2cache.blockedCauses::no_mshrs              0                       # number of times access was blocked (Count)
system.L2cache.blockedCauses::no_targets            0                       # number of times access was blocked (Count)
system.L2cache.avgBlocked::no_mshrs               nan                       # average number of cycles each access was blocked ((Cycle/Count))
system.L2cache.avgBlocked::no_targets             nan                       # average number of cycles each access was blocked ((Cycle/Count))
system.L2cache.demandMshrMisses::cpu.inst          480                       # number of demand (read+write) MSHR misses (Count)
system.L2cache.demandMshrMisses::cpu.data         1265                       # number of demand (read+write) MSHR misses (Count)
system.L2cache.demandMshrMisses::total           1745                       # number of demand (read+write) MSHR misses (Count)
system.L2cache.overallMshrMisses::cpu.inst          480                       # number of overall MSHR misses (Count)
system.L2cache.overallMshrMisses::cpu.data         1265                       # number of overall MSHR misses (Count)
system.L2cache.overallMshrMisses::total          1745                       # number of overall MSHR misses (Count)
system.L2cache.demandMshrMissLatency::cpu.inst     38190000                       # number of demand (read+write) MSHR miss ticks (Tick)
system.L2cache.demandMshrMissLatency::cpu.data    103310000                       # number of demand (read+write) MSHR miss ticks (Tick)
system.L2cache.demandMshrMissLatency::total    141500000                       # number of demand (read+write) MSHR miss ticks (Tick)
system.L2cache.overallMshrMissLatency::cpu.inst     38190000                       # number of overall MSHR miss ticks (Tick)
system.L2cache.overallMshrMissLatency::cpu.data    103310000                       # number of overall MSHR miss ticks (Tick)
system.L2cache.overallMshrMissLatency::total    141500000                       # number of overall MSHR miss ticks (Tick)
system.L2cache.demandMshrMissRate::cpu.inst     0.991736                       # mshr miss ratio for demand accesses (Ratio)
system.L2cache.demandMshrMissRate::cpu.data     0.967865                       # mshr miss ratio for demand accesses (Ratio)
system.L2cache.demandMshrMissRate::total     0.974316                       # mshr miss ratio for demand accesses (Ratio)
system.L2cache.overallMshrMissRate::cpu.inst     0.991736                       # mshr miss ratio for overall accesses (Ratio)
system.L2cache.overallMshrMissRate::cpu.data     0.967865                       # mshr miss ratio for overall accesses (Ratio)
system.L2cache.overallMshrMissRate::total     0.974316                       # mshr miss ratio for overall accesses (Ratio)
system.L2cache.demandAvgMshrMissLatency::cpu.inst 79562.500000                       # average overall mshr miss latency ((Cycle/Count))
system.L2cache.demandAvgMshrMissLatency::cpu.data 81667.984190                       # average overall mshr miss latency ((Cycle/Count))
system.L2cache.demandAvgMshrMissLatency::total 81088.825215                       # average overall mshr miss latency ((Cycle/Count))
system.L2cache.overallAvgMshrMissLatency::cpu.inst 79562.500000                       # average overall mshr miss latency ((Cycle/Count))
system.L2cache.overallAvgMshrMissLatency::cpu.data 81667.984190                       # average overall mshr miss latency ((Cycle/Count))
system.L2cache.overallAvgMshrMissLatency::total 81088.825215                       # average overall mshr miss latency ((Cycle/Count))
system.L2cache.replacements                         0                       # number of replacements (Count)
system.L2cache.ReadExReq.hits::cpu.data            19                       # number of ReadExReq hits (Count)
system.L2cache.ReadExReq.hits::total               19                       # number of ReadExReq hits (Count)
system.L2cache.ReadExReq.misses::cpu.data          627                       # number of ReadExReq misses (Count)
system.L2cache.ReadExReq.misses::total            627                       # number of ReadExReq misses (Count)
system.L2cache.ReadExReq.missLatency::cpu.data     63226000                       # number of ReadExReq miss ticks (Tick)
system.L2cache.ReadExReq.missLatency::total     63226000                       # number of ReadExReq miss ticks (Tick)
system.L2cache.ReadExReq.accesses::cpu.data          646                       # number of ReadExReq accesses(hits+misses) (Count)
system.L2cache.ReadExReq.accesses::total          646                       # number of ReadExReq accesses(hits+misses) (Count)
system.L2cache.ReadExReq.missRate::cpu.data     0.970588                       # miss rate for ReadExReq accesses (Ratio)
system.L2cache.ReadExReq.missRate::total     0.970588                       # miss rate for ReadExReq accesses (Ratio)
system.L2cache.ReadExReq.avgMissLatency::cpu.data 100838.915470                       # average ReadExReq miss latency ((Tick/Count))
system.L2cache.ReadExReq.avgMissLatency::total 100838.915470                       # average ReadExReq miss latency ((Tick/Count))
system.L2cache.ReadExReq.mshrMisses::cpu.data          627                       # number of ReadExReq MSHR misses (Count)
system.L2cache.ReadExReq.mshrMisses::total          627                       # number of ReadExReq MSHR misses (Count)
system.L2cache.ReadExReq.mshrMissLatency::cpu.data     50686000                       # number of ReadExReq MSHR miss ticks (Tick)
system.L2cache.ReadExReq.mshrMissLatency::total     50686000                       # number of ReadExReq MSHR miss ticks (Tick)
system.L2cache.ReadExReq.mshrMissRate::cpu.data     0.970588                       # mshr miss rate for ReadExReq accesses (Ratio)
system.L2cache.ReadExReq.mshrMissRate::total     0.970588                       # mshr miss rate for ReadExReq accesses (Ratio)
system.L2cache.ReadExReq.avgMshrMissLatency::cpu.data 80838.915470                       # average ReadExReq mshr miss latency ((Tick/Count))
system.L2cache.ReadExReq.avgMshrMissLatency::total 80838.915470                       # average ReadExReq mshr miss latency ((Tick/Count))
system.L2cache.ReadSharedReq.hits::cpu.inst            4                       # number of ReadSharedReq hits (Count)
system.L2cache.ReadSharedReq.hits::cpu.data           23                       # number of ReadSharedReq hits (Count)
system.L2cache.ReadSharedReq.hits::total           27                       # number of ReadSharedReq hits (Count)
system.L2cache.ReadSharedReq.misses::cpu.inst          480                       # number of ReadSharedReq misses (Count)
system.L2cache.ReadSharedReq.misses::cpu.data          638                       # number of ReadSharedReq misses (Count)
system.L2cache.ReadSharedReq.misses::total         1118                       # number of ReadSharedReq misses (Count)
system.L2cache.ReadSharedReq.missLatency::cpu.inst     47770000                       # number of ReadSharedReq miss ticks (Tick)
system.L2cache.ReadSharedReq.missLatency::cpu.data     65384000                       # number of ReadSharedReq miss ticks (Tick)
system.L2cache.ReadSharedReq.missLatency::total    113154000                       # number of ReadSharedReq miss ticks (Tick)
system.L2cache.ReadSharedReq.accesses::cpu.inst          484                       # number of ReadSharedReq accesses(hits+misses) (Count)
system.L2cache.ReadSharedReq.accesses::cpu.data          661                       # number of ReadSharedReq accesses(hits+misses) (Count)
system.L2cache.ReadSharedReq.accesses::total         1145                       # number of ReadSharedReq accesses(hits+misses) (Count)
system.L2cache.ReadSharedReq.missRate::cpu.inst     0.991736                       # miss rate for ReadSharedReq accesses (Ratio)
system.L2cache.ReadSharedReq.missRate::cpu.data     0.965204                       # miss rate for ReadSharedReq accesses (Ratio)
system.L2cache.ReadSharedReq.missRate::total     0.976419                       # miss rate for ReadSharedReq accesses (Ratio)
system.L2cache.ReadSharedReq.avgMissLatency::cpu.inst 99520.833333                       # average ReadSharedReq miss latency ((Tick/Count))
system.L2cache.ReadSharedReq.avgMissLatency::cpu.data 102482.758621                       # average ReadSharedReq miss latency ((Tick/Count))
system.L2cache.ReadSharedReq.avgMissLatency::total 101211.091234                       # average ReadSharedReq miss latency ((Tick/Count))
system.L2cache.ReadSharedReq.mshrMisses::cpu.inst          480                       # number of ReadSharedReq MSHR misses (Count)
system.L2cache.ReadSharedReq.mshrMisses::cpu.data          638                       # number of ReadSharedReq MSHR misses (Count)
system.L2cache.ReadSharedReq.mshrMisses::total         1118                       # number of ReadSharedReq MSHR misses (Count)
system.L2cache.ReadSharedReq.mshrMissLatency::cpu.inst     38190000                       # number of ReadSharedReq MSHR miss ticks (Tick)
system.L2cache.ReadSharedReq.mshrMissLatency::cpu.data     52624000                       # number of ReadSharedReq MSHR miss ticks (Tick)
system.L2cache.ReadSharedReq.mshrMissLatency::total     90814000                       # number of ReadSharedReq MSHR miss ticks (Tick)
system.L2cache.ReadSharedReq.mshrMissRate::cpu.inst     0.991736                       # mshr miss rate for ReadSharedReq accesses (Ratio)
system.L2cache.ReadSharedReq.mshrMissRate::cpu.data     0.965204                       # mshr miss rate for ReadSharedReq accesses (Ratio)
system.L2cache.ReadSharedReq.mshrMissRate::total     0.976419                       # mshr miss rate for ReadSharedReq accesses (Ratio)
system.L2cache.ReadSharedReq.avgMshrMissLatency::cpu.inst 79562.500000                       # average ReadSharedReq mshr miss latency ((Tick/Count))
system.L2cache.ReadSharedReq.avgMshrMissLatency::cpu.data 82482.758621                       # average ReadSharedReq mshr miss latency ((Tick/Count))
system.L2cache.ReadSharedReq.avgMshrMissLatency::total 81228.980322                       # average ReadSharedReq mshr miss latency ((Tick/Count))
system.L2cache.WritebackDirty.hits::writebacks          202                       # number of WritebackDirty hits (Count)
system.L2cache.WritebackDirty.hits::total          202                       # number of WritebackDirty hits (Count)
system.L2cache.WritebackDirty.accesses::writebacks          202                       # number of WritebackDirty accesses(hits+misses) (Count)
system.L2cache.WritebackDirty.accesses::total          202                       # number of WritebackDirty accesses(hits+misses) (Count)
system.L2cache.power_state.pwrStateResidencyTicks::UNDEFINED   1793427000                       # Cumulative time (in ticks) in various power states (Tick)
system.L2cache.tags.tagsInUse             1214.521405                       # Average ticks per tags in use ((Tick/Count))
system.L2cache.tags.totalRefs                    2109                       # Total number of references to valid blocks. (Count)
system.L2cache.tags.sampledRefs                  1744                       # Sample count of references to valid blocks. (Count)
system.L2cache.tags.avgRefs                  1.209289                       # Average number of references to valid blocks. ((Count/Count))
system.L2cache.tags.warmupTick                  86000                       # The tick when the warmup percentage was hit. (Tick)
system.L2cache.tags.occupancies::cpu.inst   432.326392                       # Average occupied blocks per tick, per requestor ((Count/Tick))
system.L2cache.tags.occupancies::cpu.data   782.195014                       # Average occupied blocks per tick, per requestor ((Count/Tick))
system.L2cache.tags.avgOccs::cpu.inst        0.013194                       # Average percentage of cache occupancy ((Ratio/Tick))
system.L2cache.tags.avgOccs::cpu.data        0.023871                       # Average percentage of cache occupancy ((Ratio/Tick))
system.L2cache.tags.avgOccs::total           0.037064                       # Average percentage of cache occupancy ((Ratio/Tick))
system.L2cache.tags.occupanciesTaskId::1024         1744                       # Occupied blocks per task id (Count)
system.L2cache.tags.ageTaskId_1024::0              58                       # Occupied blocks per task id, per block age (Count)
system.L2cache.tags.ageTaskId_1024::2             511                       # Occupied blocks per task id, per block age (Count)
system.L2cache.tags.ageTaskId_1024::3            1175                       # Occupied blocks per task id, per block age (Count)
system.L2cache.tags.ratioOccsTaskId::1024     0.053223                       # Ratio of occupied blocks and all blocks, per task id (Ratio)
system.L2cache.tags.tagAccesses                 18624                       # Number of tag accesses (Count)
system.L2cache.tags.dataAccesses                18624                       # Number of data accesses (Count)
system.L2cache.tags.power_state.pwrStateResidencyTicks::UNDEFINED   1793427000                       # Cumulative time (in ticks) in various power states (Tick)
system.clk_domain.clock                          1000                       # Clock period in ticks (Tick)
system.clk_domain.voltage_domain.voltage            1                       # Voltage in Volts (Volt)
system.cpu.numCycles                          1793428                       # Number of cpu cycles simulated (Cycle)
system.cpu.numWorkItemsStarted                      0                       # Number of work items this cpu started (Count)
system.cpu.numWorkItemsCompleted                    0                       # Number of work items this cpu completed (Count)
system.cpu.instsAdded                         5863745                       # Number of instructions added to the IQ (excludes non-spec) (Count)
system.cpu.nonSpecInstsAdded                        4                       # Number of non-speculative instructions added to the IQ (Count)
system.cpu.instsIssued                        5638440                       # Number of instructions issued (Count)
system.cpu.squashedInstsIssued                  16735                       # Number of squashed instructions issued (Count)
system.cpu.squashedInstsExamined              1666605                       # Number of squashed instructions iterated over during squash; mainly for profiling (Count)
system.cpu.squashedOperandsExamined           1214544                       # Number of squashed operands that are examined and possibly removed from graph (Count)
system.cpu.squashedNonSpecRemoved                   3                       # Number of squashed non-spec instructions that were removed (Count)
system.cpu.numIssuedDist::samples             1773060                       # Number of insts issued each cycle (Count)
system.cpu.numIssuedDist::mean               3.180062                       # Number of insts issued each cycle (Count)
system.cpu.numIssuedDist::stdev              2.682691                       # Number of insts issued each cycle (Count)
system.cpu.numIssuedDist::underflows                0      0.00%      0.00% # Number of insts issued each cycle (Count)
system.cpu.numIssuedDist::0                    556435     31.38%     31.38% # Number of insts issued each cycle (Count)
system.cpu.numIssuedDist::1                     43318      2.44%     33.83% # Number of insts issued each cycle (Count)
system.cpu.numIssuedDist::2                    198689     11.21%     45.03% # Number of insts issued each cycle (Count)
system.cpu.numIssuedDist::3                    153462      8.66%     53.69% # Number of insts issued each cycle (Count)
system.cpu.numIssuedDist::4                    165275      9.32%     63.01% # Number of insts issued each cycle (Count)
system.cpu.numIssuedDist::5                    144711      8.16%     71.17% # Number of insts issued each cycle (Count)
system.cpu.numIssuedDist::6                    272279     15.36%     86.53% # Number of insts issued each cycle (Count)
system.cpu.numIssuedDist::7                    192099     10.83%     97.36% # Number of insts issued each cycle (Count)
system.cpu.numIssuedDist::8                     46792      2.64%    100.00% # Number of insts issued each cycle (Count)
system.cpu.numIssuedDist::overflows                 0      0.00%    100.00% # Number of insts issued each cycle (Count)
system.cpu.numIssuedDist::min_value                 0                       # Number of insts issued each cycle (Count)
system.cpu.numIssuedDist::max_value                 8                       # Number of insts issued each cycle (Count)
system.cpu.numIssuedDist::total               1773060                       # Number of insts issued each cycle (Count)
system.cpu.statFuBusy::No_OpClass                   0      0.00%      0.00% # attempts to use FU when none available (Count)
system.cpu.statFuBusy::IntAlu                  186638     99.96%     99.96% # attempts to use FU when none available (Count)
system.cpu.statFuBusy::IntMult                      0      0.00%     99.96% # attempts to use FU when none available (Count)
system.cpu.statFuBusy::IntDiv                       0      0.00%     99.96% # attempts to use FU when none available (Count)
system.cpu.statFuBusy::FloatAdd                     0      0.00%     99.96% # attempts to use FU when none available (Count)
system.cpu.statFuBusy::FloatCmp                     0      0.00%     99.96% # attempts to use FU when none available (Count)
system.cpu.statFuBusy::FloatCvt                     0      0.00%     99.96% # attempts to use FU when none available (Count)
system.cpu.statFuBusy::FloatMult                    0      0.00%     99.96% # attempts to use FU when none available (Count)
system.cpu.statFuBusy::FloatMultAcc                 0      0.00%     99.96% # attempts to use FU when none available (Count)
system.cpu.statFuBusy::FloatDiv                     0      0.00%     99.96% # attempts to use FU when none available (Count)
system.cpu.statFuBusy::FloatMisc                    0      0.00%     99.96% # attempts to use FU when none available (Count)
system.cpu.statFuBusy::FloatSqrt                    0      0.00%     99.96% # attempts to use FU when none available (Count)
system.cpu.statFuBusy::SimdAdd                      0      0.00%     99.96% # attempts to use FU when none available (Count)
system.cpu.statFuBusy::SimdAddAcc                   0      0.00%     99.96% # attempts to use FU when none available (Count)
system.cpu.statFuBusy::SimdAlu                     12      0.01%     99.96% # attempts to use FU when none available (Count)
system.cpu.statFuBusy::SimdCmp                      0      0.00%     99.96% # attempts to use FU when none available (Count)
system.cpu.statFuBusy::SimdCvt                      3      0.00%     99.96% # attempts to use FU when none available (Count)
system.cpu.statFuBusy::SimdMisc                     3      0.00%     99.96% # attempts to use FU when none available (Count)
system.cpu.statFuBusy::SimdMult                     0      0.00%     99.96% # attempts to use FU when none available (Count)
system.cpu.statFuBusy::SimdMultAcc                  0      0.00%     99.96% # attempts to use FU when none available (Count)
system.cpu.statFuBusy::SimdShift                    0      0.00%     99.96% # attempts to use FU when none available (Count)
system.cpu.statFuBusy::SimdShiftAcc                 0      0.00%     99.96% # attempts to use FU when none available (Count)
system.cpu.statFuBusy::SimdDiv                      0      0.00%     99.96% # attempts to use FU when none available (Count)
system.cpu.statFuBusy::SimdSqrt                     0      0.00%     99.96% # attempts to use FU when none available (Count)
system.cpu.statFuBusy::SimdFloatAdd                 0      0.00%     99.96% # attempts to use FU when none available (Count)
system.cpu.statFuBusy::SimdFloatAlu                 0      0.00%     99.96% # attempts to use FU when none available (Count)
system.cpu.statFuBusy::SimdFloatCmp                 0      0.00%     99.96% # attempts to use FU when none available (Count)
system.cpu.statFuBusy::SimdFloatCvt                 0      0.00%     99.96% # attempts to use FU when none available (Count)
system.cpu.statFuBusy::SimdFloatDiv                 0      0.00%     99.96% # attempts to use FU when none available (Count)
system.cpu.statFuBusy::SimdFloatMisc                0      0.00%     99.96% # attempts to use FU when none available (Count)
system.cpu.statFuBusy::SimdFloatMult                0      0.00%     99.96% # attempts to use FU when none available (Count)
system.cpu.statFuBusy::SimdFloatMultAcc             0      0.00%     99.96% # attempts to use FU when none available (Count)
system.cpu.statFuBusy::SimdFloatSqrt                0      0.00%     99.96% # attempts to use FU when none available (Count)
system.cpu.statFuBusy::SimdReduceAdd                0      0.00%     99.96% # attempts to use FU when none available (Count)
system.cpu.statFuBusy::SimdReduceAlu                0      0.00%     99.96% # attempts to use FU when none available (Count)
system.cpu.statFuBusy::SimdReduceCmp                0      0.00%     99.96% # attempts to use FU when none available (Count)
system.cpu.statFuBusy::SimdFloatReduceAdd            0      0.00%     99.96% # attempts to use FU when none available (Count)
system.cpu.statFuBusy::SimdFloatReduceCmp            0      0.00%     99.96% # attempts to use FU when none available (Count)
system.cpu.statFuBusy::SimdAes                      0      0.00%     99.96% # attempts to use FU when none available (Count)
system.cpu.statFuBusy::SimdAesMix                   0      0.00%     99.96% # attempts to use FU when none available (Count)
system.cpu.statFuBusy::SimdSha1Hash                 0      0.00%     99.96% # attempts to use FU when none available (Count)
system.cpu.statFuBusy::SimdSha1Hash2                0      0.00%     99.96% # attempts to use FU when none available (Count)
system.cpu.statFuBusy::SimdSha256Hash               0      0.00%     99.96% # attempts to use FU when none available (Count)
system.cpu.statFuBusy::SimdSha256Hash2              0      0.00%     99.96% # attempts to use FU when none available (Count)
system.cpu.statFuBusy::SimdShaSigma2                0      0.00%     99.96% # attempts to use FU when none available (Count)
system.cpu.statFuBusy::SimdShaSigma3                0      0.00%     99.96% # attempts to use FU when none available (Count)
system.cpu.statFuBusy::SimdPredAlu                  0      0.00%     99.96% # attempts to use FU when none available (Count)
system.cpu.statFuBusy::MemRead                     30      0.02%     99.98% # attempts to use FU when none available (Count)
system.cpu.statFuBusy::MemWrite                    19      0.01%     99.99% # attempts to use FU when none available (Count)
system.cpu.statFuBusy::FloatMemRead                 5      0.00%     99.99% # attempts to use FU when none available (Count)
system.cpu.statFuBusy::FloatMemWrite               12      0.01%    100.00% # attempts to use FU when none available (Count)
system.cpu.statFuBusy::IprAccess                    0      0.00%    100.00% # attempts to use FU when none available (Count)
system.cpu.statFuBusy::InstPrefetch                 0      0.00%    100.00% # attempts to use FU when none available (Count)
system.cpu.statIssuedInstType_0::No_OpClass        30067      0.53%      0.53% # Number of instructions issued per FU type, per thread (Count)
system.cpu.statIssuedInstType_0::IntAlu       4767849     84.56%     85.09% # Number of instructions issued per FU type, per thread (Count)
system.cpu.statIssuedInstType_0::IntMult            5      0.00%     85.09% # Number of instructions issued per FU type, per thread (Count)
system.cpu.statIssuedInstType_0::IntDiv            32      0.00%     85.09% # Number of instructions issued per FU type, per thread (Count)
system.cpu.statIssuedInstType_0::FloatAdd          136      0.00%     85.10% # Number of instructions issued per FU type, per thread (Count)
system.cpu.statIssuedInstType_0::FloatCmp            0      0.00%     85.10% # Number of instructions issued per FU type, per thread (Count)
system.cpu.statIssuedInstType_0::FloatCvt            0      0.00%     85.10% # Number of instructions issued per FU type, per thread (Count)
system.cpu.statIssuedInstType_0::FloatMult            0      0.00%     85.10% # Number of instructions issued per FU type, per thread (Count)
system.cpu.statIssuedInstType_0::FloatMultAcc            0      0.00%     85.10% # Number of instructions issued per FU type, per thread (Count)
system.cpu.statIssuedInstType_0::FloatDiv            0      0.00%     85.10% # Number of instructions issued per FU type, per thread (Count)
system.cpu.statIssuedInstType_0::FloatMisc            0      0.00%     85.10% # Number of instructions issued per FU type, per thread (Count)
system.cpu.statIssuedInstType_0::FloatSqrt            0      0.00%     85.10% # Number of instructions issued per FU type, per thread (Count)
system.cpu.statIssuedInstType_0::SimdAdd            0      0.00%     85.10% # Number of instructions issued per FU type, per thread (Count)
system.cpu.statIssuedInstType_0::SimdAddAcc            0      0.00%     85.10% # Number of instructions issued per FU type, per thread (Count)
system.cpu.statIssuedInstType_0::SimdAlu          166      0.00%     85.10% # Number of instructions issued per FU type, per thread (Count)
system.cpu.statIssuedInstType_0::SimdCmp            0      0.00%     85.10% # Number of instructions issued per FU type, per thread (Count)
system.cpu.statIssuedInstType_0::SimdCvt           48      0.00%     85.10% # Number of instructions issued per FU type, per thread (Count)
system.cpu.statIssuedInstType_0::SimdMisc          218      0.00%     85.10% # Number of instructions issued per FU type, per thread (Count)
system.cpu.statIssuedInstType_0::SimdMult            0      0.00%     85.10% # Number of instructions issued per FU type, per thread (Count)
system.cpu.statIssuedInstType_0::SimdMultAcc            0      0.00%     85.10% # Number of instructions issued per FU type, per thread (Count)
system.cpu.statIssuedInstType_0::SimdShift            0      0.00%     85.10% # Number of instructions issued per FU type, per thread (Count)
system.cpu.statIssuedInstType_0::SimdShiftAcc            0      0.00%     85.10% # Number of instructions issued per FU type, per thread (Count)
system.cpu.statIssuedInstType_0::SimdDiv            0      0.00%     85.10% # Number of instructions issued per FU type, per thread (Count)
system.cpu.statIssuedInstType_0::SimdSqrt            0      0.00%     85.10% # Number of instructions issued per FU type, per thread (Count)
system.cpu.statIssuedInstType_0::SimdFloatAdd            0      0.00%     85.10% # Number of instructions issued per FU type, per thread (Count)
system.cpu.statIssuedInstType_0::SimdFloatAlu            0      0.00%     85.10% # Number of instructions issued per FU type, per thread (Count)
system.cpu.statIssuedInstType_0::SimdFloatCmp            0      0.00%     85.10% # Number of instructions issued per FU type, per thread (Count)
system.cpu.statIssuedInstType_0::SimdFloatCvt            0      0.00%     85.10% # Number of instructions issued per FU type, per thread (Count)
system.cpu.statIssuedInstType_0::SimdFloatDiv            0      0.00%     85.10% # Number of instructions issued per FU type, per thread (Count)
system.cpu.statIssuedInstType_0::SimdFloatMisc            0      0.00%     85.10% # Number of instructions issued per FU type, per thread (Count)
system.cpu.statIssuedInstType_0::SimdFloatMult            0      0.00%     85.10% # Number of instructions issued per FU type, per thread (Count)
system.cpu.statIssuedInstType_0::SimdFloatMultAcc            0      0.00%     85.10% # Number of instructions issued per FU type, per thread (Count)
system.cpu.statIssuedInstType_0::SimdFloatSqrt            0      0.00%     85.10% # Number of instructions issued per FU type, per thread (Count)
system.cpu.statIssuedInstType_0::SimdReduceAdd            0      0.00%     85.10% # Number of instructions issued per FU type, per thread (Count)
system.cpu.statIssuedInstType_0::SimdReduceAlu            0      0.00%     85.10% # Number of instructions issued per FU type, per thread (Count)
system.cpu.statIssuedInstType_0::SimdReduceCmp            0      0.00%     85.10% # Number of instructions issued per FU type, per thread (Count)
system.cpu.statIssuedInstType_0::SimdFloatReduceAdd            0      0.00%     85.10% # Number of instructions issued per FU type, per thread (Count)
system.cpu.statIssuedInstType_0::SimdFloatReduceCmp            0      0.00%     85.10% # Number of instructions issued per FU type, per thread (Count)
system.cpu.statIssuedInstType_0::SimdAes            0      0.00%     85.10% # Number of instructions issued per FU type, per thread (Count)
system.cpu.statIssuedInstType_0::SimdAesMix            0      0.00%     85.10% # Number of instructions issued per FU type, per thread (Count)
system.cpu.statIssuedInstType_0::SimdSha1Hash            0      0.00%     85.10% # Number of instructions issued per FU type, per thread (Count)
system.cpu.statIssuedInstType_0::SimdSha1Hash2            0      0.00%     85.10% # Number of instructions issued per FU type, per thread (Count)
system.cpu.statIssuedInstType_0::SimdSha256Hash            0      0.00%     85.10% # Number of instructions issued per FU type, per thread (Count)
system.cpu.statIssuedInstType_0::SimdSha256Hash2            0      0.00%     85.10% # Number of instructions issued per FU type, per thread (Count)
system.cpu.statIssuedInstType_0::SimdShaSigma2            0      0.00%     85.10% # Number of instructions issued per FU type, per thread (Count)
system.cpu.statIssuedInstType_0::SimdShaSigma3            0      0.00%     85.10% # Number of instructions issued per FU type, per thread (Count)
system.cpu.statIssuedInstType_0::SimdPredAlu            0      0.00%     85.10% # Number of instructions issued per FU type, per thread (Count)
system.cpu.statIssuedInstType_0::MemRead       435052      7.72%     92.82% # Number of instructions issued per FU type, per thread (Count)
system.cpu.statIssuedInstType_0::MemWrite       300809      5.33%     98.15% # Number of instructions issued per FU type, per thread (Count)
system.cpu.statIssuedInstType_0::FloatMemRead        53474      0.95%     99.10% # Number of instructions issued per FU type, per thread (Count)
system.cpu.statIssuedInstType_0::FloatMemWrite        50584      0.90%    100.00% # Number of instructions issued per FU type, per thread (Count)
system.cpu.statIssuedInstType_0::IprAccess            0      0.00%    100.00% # Number of instructions issued per FU type, per thread (Count)
system.cpu.statIssuedInstType_0::InstPrefetch            0      0.00%    100.00% # Number of instructions issued per FU type, per thread (Count)
system.cpu.statIssuedInstType_0::total        5638440                       # Number of instructions issued per FU type, per thread (Count)
system.cpu.issueRate                         3.143946                       # Inst issue rate ((Count/Cycle))
system.cpu.fuBusy                              186722                       # FU busy when requested (Count)
system.cpu.fuBusyRate                        0.033116                       # FU busy rate (busy events/executed inst) ((Count/Count))
system.cpu.intInstQueueReads                 13043825                       # Number of integer instruction queue reads (Count)
system.cpu.intInstQueueWrites                 7420300                       # Number of integer instruction queue writes (Count)
system.cpu.intInstQueueWakeupAccesses         5326504                       # Number of integer instruction queue wakeup accesses (Count)
system.cpu.fpInstQueueReads                    209572                       # Number of floating instruction queue reads (Count)
system.cpu.fpInstQueueWrites                   110081                       # Number of floating instruction queue writes (Count)
system.cpu.fpInstQueueWakeupAccesses           101359                       # Number of floating instruction queue wakeup accesses (Count)
system.cpu.vecInstQueueReads                        0                       # Number of vector instruction queue reads (Count)
system.cpu.vecInstQueueWrites                       0                       # Number of vector instruction queue writes (Count)
system.cpu.vecInstQueueWakeupAccesses               0                       # Number of vector instruction queue wakeup accesses (Count)
system.cpu.intAluAccesses                     5690294                       # Number of integer alu accesses (Count)
system.cpu.fpAluAccesses                       104801                       # Number of floating point alu accesses (Count)
system.cpu.vecAluAccesses                           0                       # Number of vector alu accesses (Count)
system.cpu.numInsts                           5479524                       # Number of executed instructions (Count)
system.cpu.numLoadInsts                        471379                       # Number of load instructions executed (Count)
system.cpu.numSquashedInsts                    158916                       # Number of squashed instructions skipped in execute (Count)
system.cpu.numSwp                                   0                       # Number of swp insts executed (Count)
system.cpu.numNop                                   0                       # Number of nop insts executed (Count)
system.cpu.numRefs                             809942                       # Number of memory reference insts executed (Count)
system.cpu.numBranches                         653851                       # Number of branches executed (Count)
system.cpu.numStoreInsts                       338563                       # Number of stores executed (Count)
system.cpu.numRate                           3.055335                       # Inst execution rate ((Count/Cycle))
system.cpu.timesIdled                             297                       # Number of times that the entire CPU went into an idle state and unscheduled itself (Count)
system.cpu.idleCycles                           20368                       # Total number of cycles that the CPU has spent unscheduled due to idling (Cycle)
system.cpu.committedInsts                     2511762                       # Number of Instructions Simulated (Count)
system.cpu.committedOps                       4197138                       # Number of Ops (including micro ops) Simulated (Count)
system.cpu.cpi                               0.714012                       # CPI: Cycles Per Instruction ((Cycle/Count))
system.cpu.totalCpi                          0.714012                       # CPI: Total CPI of All Threads ((Cycle/Count))
system.cpu.ipc                               1.400537                       # IPC: Instructions Per Cycle ((Count/Cycle))
system.cpu.totalIpc                          1.400537                       # IPC: Total IPC of All Threads ((Count/Cycle))
system.cpu.intRegfileReads                    7653202                       # Number of integer regfile reads (Count)
system.cpu.intRegfileWrites                   4369874                       # Number of integer regfile writes (Count)
system.cpu.fpRegfileReads                       51573                       # Number of floating regfile reads (Count)
system.cpu.fpRegfileWrites                      50973                       # Number of floating regfile writes (Count)
system.cpu.ccRegfileReads                     3167811                       # number of cc regfile reads (Count)
system.cpu.ccRegfileWrites                    2288377                       # number of cc regfile writes (Count)
system.cpu.miscRegfileReads                   2173037                       # number of misc regfile reads (Count)
system.cpu.miscRegfileWrites                        1                       # number of misc regfile writes (Count)
system.cpu.MemDepUnit__0.insertedLoads         495224                       # Number of loads inserted to the mem dependence unit. (Count)
system.cpu.MemDepUnit__0.insertedStores        372932                       # Number of stores inserted to the mem dependence unit. (Count)
system.cpu.MemDepUnit__0.conflictingLoads        15305                       # Number of conflicting loads. (Count)
system.cpu.MemDepUnit__0.conflictingStores        15780                       # Number of conflicting stores. (Count)
system.cpu.MemDepUnit__1.insertedLoads              0                       # Number of loads inserted to the mem dependence unit. (Count)
system.cpu.MemDepUnit__1.insertedStores             0                       # Number of stores inserted to the mem dependence unit. (Count)
system.cpu.MemDepUnit__1.conflictingLoads            0                       # Number of conflicting loads. (Count)
system.cpu.MemDepUnit__1.conflictingStores            0                       # Number of conflicting stores. (Count)
system.cpu.MemDepUnit__2.insertedLoads              0                       # Number of loads inserted to the mem dependence unit. (Count)
system.cpu.MemDepUnit__2.insertedStores             0                       # Number of stores inserted to the mem dependence unit. (Count)
system.cpu.MemDepUnit__2.conflictingLoads            0                       # Number of conflicting loads. (Count)
system.cpu.MemDepUnit__2.conflictingStores            0                       # Number of conflicting stores. (Count)
system.cpu.MemDepUnit__3.insertedLoads              0                       # Number of loads inserted to the mem dependence unit. (Count)
system.cpu.MemDepUnit__3.insertedStores             0                       # Number of stores inserted to the mem dependence unit. (Count)
system.cpu.MemDepUnit__3.conflictingLoads            0                       # Number of conflicting loads. (Count)
system.cpu.MemDepUnit__3.conflictingStores            0                       # Number of conflicting stores. (Count)
system.cpu.branchPred.lookups                  887428                       # Number of BP lookups (Count)
system.cpu.branchPred.condPredicted            755530                       # Number of conditional branches predicted (Count)
system.cpu.branchPred.condIncorrect             58659                       # Number of conditional branches incorrect (Count)
system.cpu.branchPred.BTBLookups               277532                       # Number of BTB lookups (Count)
system.cpu.branchPred.BTBHits                  276360                       # Number of BTB hits (Count)
system.cpu.branchPred.BTBHitRatio            0.995777                       # BTB Hit Ratio (Ratio)
system.cpu.branchPred.RASUsed                    9253                       # Number of times the RAS was used to get a target. (Count)
system.cpu.branchPred.RASIncorrect                  2                       # Number of incorrect RAS predictions. (Count)
system.cpu.branchPred.indirectLookups             302                       # Number of indirect predictor lookups. (Count)
system.cpu.branchPred.indirectHits                 15                       # Number of indirect target hits. (Count)
system.cpu.branchPred.indirectMisses              287                       # Number of indirect misses. (Count)
system.cpu.branchPred.indirectMispredicted           95                       # Number of mispredicted indirect branches. (Count)
system.cpu.commit.commitSquashedInsts         1666424                       # The number of squashed insts skipped by commit (Count)
system.cpu.commit.commitNonSpecStalls               1                       # The number of times commit has been forced to stall to communicate backwards (Count)
system.cpu.commit.branchMispredicts             56829                       # The number of times a branch was mispredicted (Count)
system.cpu.commit.numCommittedDist::samples      1537554                       # Number of insts commited each cycle (Count)
system.cpu.commit.numCommittedDist::mean     2.729750                       # Number of insts commited each cycle (Count)
system.cpu.commit.numCommittedDist::stdev     2.831934                       # Number of insts commited each cycle (Count)
system.cpu.commit.numCommittedDist::underflows            0      0.00%      0.00% # Number of insts commited each cycle (Count)
system.cpu.commit.numCommittedDist::0          505725     32.89%     32.89% # Number of insts commited each cycle (Count)
system.cpu.commit.numCommittedDist::1          164693     10.71%     43.60% # Number of insts commited each cycle (Count)
system.cpu.commit.numCommittedDist::2          198485     12.91%     56.51% # Number of insts commited each cycle (Count)
system.cpu.commit.numCommittedDist::3          201139     13.08%     69.59% # Number of insts commited each cycle (Count)
system.cpu.commit.numCommittedDist::4          111221      7.23%     76.83% # Number of insts commited each cycle (Count)
system.cpu.commit.numCommittedDist::5           48462      3.15%     79.98% # Number of insts commited each cycle (Count)
system.cpu.commit.numCommittedDist::6           46788      3.04%     83.02% # Number of insts commited each cycle (Count)
system.cpu.commit.numCommittedDist::7           24192      1.57%     84.60% # Number of insts commited each cycle (Count)
system.cpu.commit.numCommittedDist::8          236849     15.40%    100.00% # Number of insts commited each cycle (Count)
system.cpu.commit.numCommittedDist::overflows            0      0.00%    100.00% # Number of insts commited each cycle (Count)
system.cpu.commit.numCommittedDist::min_value            0                       # Number of insts commited each cycle (Count)
system.cpu.commit.numCommittedDist::max_value            8                       # Number of insts commited each cycle (Count)
system.cpu.commit.numCommittedDist::total      1537554                       # Number of insts commited each cycle (Count)
system.cpu.commit.instsCommitted              2511762                       # Number of instructions committed (Count)
system.cpu.commit.opsCommitted                4197138                       # Number of ops (including micro ops) committed (Count)
system.cpu.commit.memRefs                      655837                       # Number of memory references committed (Count)
system.cpu.commit.loads                        375919                       # Number of loads committed (Count)
system.cpu.commit.amos                              0                       # Number of atomic instructions committed (Count)
system.cpu.commit.membars                           0                       # Number of memory barriers committed (Count)
system.cpu.commit.branches                     511998                       # Number of branches committed (Count)
system.cpu.commit.vectorInstructions                0                       # Number of committed Vector instructions. (Count)
system.cpu.commit.floating                      99629                       # Number of committed floating point instructions. (Count)
system.cpu.commit.integer                     4163628                       # Number of committed integer instructions. (Count)
system.cpu.commit.functionCalls                  8338                       # Number of function calls committed. (Count)
system.cpu.commit.committedInstType_0::No_OpClass        28860      0.69%      0.69% # Class of committed instruction (Count)
system.cpu.commit.committedInstType_0::IntAlu      3511925     83.67%     84.36% # Class of committed instruction (Count)
system.cpu.commit.committedInstType_0::IntMult            5      0.00%     84.36% # Class of committed instruction (Count)
system.cpu.commit.committedInstType_0::IntDiv           21      0.00%     84.36% # Class of committed instruction (Count)
system.cpu.commit.committedInstType_0::FloatAdd          135      0.00%     84.37% # Class of committed instruction (Count)
system.cpu.commit.committedInstType_0::FloatCmp            0      0.00%     84.37% # Class of committed instruction (Count)
system.cpu.commit.committedInstType_0::FloatCvt            0      0.00%     84.37% # Class of committed instruction (Count)
system.cpu.commit.committedInstType_0::FloatMult            0      0.00%     84.37% # Class of committed instruction (Count)
system.cpu.commit.committedInstType_0::FloatMultAcc            0      0.00%     84.37% # Class of committed instruction (Count)
system.cpu.commit.committedInstType_0::FloatDiv            0      0.00%     84.37% # Class of committed instruction (Count)
system.cpu.commit.committedInstType_0::FloatMisc            0      0.00%     84.37% # Class of committed instruction (Count)
system.cpu.commit.committedInstType_0::FloatSqrt            0      0.00%     84.37% # Class of committed instruction (Count)
system.cpu.commit.committedInstType_0::SimdAdd            0      0.00%     84.37% # Class of committed instruction (Count)
system.cpu.commit.committedInstType_0::SimdAddAcc            0      0.00%     84.37% # Class of committed instruction (Count)
system.cpu.commit.committedInstType_0::SimdAlu           94      0.00%     84.37% # Class of committed instruction (Count)
system.cpu.commit.committedInstType_0::SimdCmp            0      0.00%     84.37% # Class of committed instruction (Count)
system.cpu.commit.committedInstType_0::SimdCvt           46      0.00%     84.37% # Class of committed instruction (Count)
system.cpu.commit.committedInstType_0::SimdMisc          215      0.01%     84.37% # Class of committed instruction (Count)
system.cpu.commit.committedInstType_0::SimdMult            0      0.00%     84.37% # Class of committed instruction (Count)
system.cpu.commit.committedInstType_0::SimdMultAcc            0      0.00%     84.37% # Class of committed instruction (Count)
system.cpu.commit.committedInstType_0::SimdShift            0      0.00%     84.37% # Class of committed instruction (Count)
system.cpu.commit.committedInstType_0::SimdShiftAcc            0      0.00%     84.37% # Class of committed instruction (Count)
system.cpu.commit.committedInstType_0::SimdDiv            0      0.00%     84.37% # Class of committed instruction (Count)
system.cpu.commit.committedInstType_0::SimdSqrt            0      0.00%     84.37% # Class of committed instruction (Count)
system.cpu.commit.committedInstType_0::SimdFloatAdd            0      0.00%     84.37% # Class of committed instruction (Count)
system.cpu.commit.committedInstType_0::SimdFloatAlu            0      0.00%     84.37% # Class of committed instruction (Count)
system.cpu.commit.committedInstType_0::SimdFloatCmp            0      0.00%     84.37% # Class of committed instruction (Count)
system.cpu.commit.committedInstType_0::SimdFloatCvt            0      0.00%     84.37% # Class of committed instruction (Count)
system.cpu.commit.committedInstType_0::SimdFloatDiv            0      0.00%     84.37% # Class of committed instruction (Count)
system.cpu.commit.committedInstType_0::SimdFloatMisc            0      0.00%     84.37% # Class of committed instruction (Count)
system.cpu.commit.committedInstType_0::SimdFloatMult            0      0.00%     84.37% # Class of committed instruction (Count)
system.cpu.commit.committedInstType_0::SimdFloatMultAcc            0      0.00%     84.37% # Class of committed instruction (Count)
system.cpu.commit.committedInstType_0::SimdFloatSqrt            0      0.00%     84.37% # Class of committed instruction (Count)
system.cpu.commit.committedInstType_0::SimdReduceAdd            0      0.00%     84.37% # Class of committed instruction (Count)
system.cpu.commit.committedInstType_0::SimdReduceAlu            0      0.00%     84.37% # Class of committed instruction (Count)
system.cpu.commit.committedInstType_0::SimdReduceCmp            0      0.00%     84.37% # Class of committed instruction (Count)
system.cpu.commit.committedInstType_0::SimdFloatReduceAdd            0      0.00%     84.37% # Class of committed instruction (Count)
system.cpu.commit.committedInstType_0::SimdFloatReduceCmp            0      0.00%     84.37% # Class of committed instruction (Count)
system.cpu.commit.committedInstType_0::SimdAes            0      0.00%     84.37% # Class of committed instruction (Count)
system.cpu.commit.committedInstType_0::SimdAesMix            0      0.00%     84.37% # Class of committed instruction (Count)
system.cpu.commit.committedInstType_0::SimdSha1Hash            0      0.00%     84.37% # Class of committed instruction (Count)
system.cpu.commit.committedInstType_0::SimdSha1Hash2            0      0.00%     84.37% # Class of committed instruction (Count)
system.cpu.commit.committedInstType_0::SimdSha256Hash            0      0.00%     84.37% # Class of committed instruction (Count)
system.cpu.commit.committedInstType_0::SimdSha256Hash2            0      0.00%     84.37% # Class of committed instruction (Count)
system.cpu.commit.committedInstType_0::SimdShaSigma2            0      0.00%     84.37% # Class of committed instruction (Count)
system.cpu.commit.committedInstType_0::SimdShaSigma3            0      0.00%     84.37% # Class of committed instruction (Count)
system.cpu.commit.committedInstType_0::SimdPredAlu            0      0.00%     84.37% # Class of committed instruction (Count)
system.cpu.commit.committedInstType_0::MemRead       326621      7.78%     92.16% # Class of committed instruction (Count)
system.cpu.commit.committedInstType_0::MemWrite       230216      5.49%     97.64% # Class of committed instruction (Count)
system.cpu.commit.committedInstType_0::FloatMemRead        49298      1.17%     98.82% # Class of committed instruction (Count)
system.cpu.commit.committedInstType_0::FloatMemWrite        49702      1.18%    100.00% # Class of committed instruction (Count)
system.cpu.commit.committedInstType_0::IprAccess            0      0.00%    100.00% # Class of committed instruction (Count)
system.cpu.commit.committedInstType_0::InstPrefetch            0      0.00%    100.00% # Class of committed instruction (Count)
system.cpu.commit.committedInstType_0::total      4197138                       # Class of committed instruction (Count)
system.cpu.commit.commitEligibleSamples        236849                       # number cycles where commit BW limit reached (Cycle)
system.cpu.dcache.demandHits::cpu.data         712910                       # number of demand (read+write) hits (Count)
system.cpu.dcache.demandHits::total            712910                       # number of demand (read+write) hits (Count)
system.cpu.dcache.overallHits::cpu.data        712910                       # number of overall hits (Count)
system.cpu.dcache.overallHits::total           712910                       # number of overall hits (Count)
system.cpu.dcache.demandMisses::cpu.data         2193                       # number of demand (read+write) misses (Count)
system.cpu.dcache.demandMisses::total            2193                       # number of demand (read+write) misses (Count)
system.cpu.dcache.overallMisses::cpu.data         2193                       # number of overall misses (Count)
system.cpu.dcache.overallMisses::total           2193                       # number of overall misses (Count)
system.cpu.dcache.demandMissLatency::cpu.data    211314000                       # number of demand (read+write) miss ticks (Tick)
system.cpu.dcache.demandMissLatency::total    211314000                       # number of demand (read+write) miss ticks (Tick)
system.cpu.dcache.overallMissLatency::cpu.data    211314000                       # number of overall miss ticks (Tick)
system.cpu.dcache.overallMissLatency::total    211314000                       # number of overall miss ticks (Tick)
system.cpu.dcache.demandAccesses::cpu.data       715103                       # number of demand (read+write) accesses (Count)
system.cpu.dcache.demandAccesses::total        715103                       # number of demand (read+write) accesses (Count)
system.cpu.dcache.overallAccesses::cpu.data       715103                       # number of overall (read+write) accesses (Count)
system.cpu.dcache.overallAccesses::total       715103                       # number of overall (read+write) accesses (Count)
system.cpu.dcache.demandMissRate::cpu.data     0.003067                       # miss rate for demand accesses (Ratio)
system.cpu.dcache.demandMissRate::total      0.003067                       # miss rate for demand accesses (Ratio)
system.cpu.dcache.overallMissRate::cpu.data     0.003067                       # miss rate for overall accesses (Ratio)
system.cpu.dcache.overallMissRate::total     0.003067                       # miss rate for overall accesses (Ratio)
system.cpu.dcache.demandAvgMissLatency::cpu.data 96358.413133                       # average overall miss latency ((Cycle/Count))
system.cpu.dcache.demandAvgMissLatency::total 96358.413133                       # average overall miss latency ((Cycle/Count))
system.cpu.dcache.overallAvgMissLatency::cpu.data 96358.413133                       # average overall miss latency ((Cycle/Count))
system.cpu.dcache.overallAvgMissLatency::total 96358.413133                       # average overall miss latency ((Cycle/Count))
system.cpu.dcache.blockedCycles::no_mshrs          534                       # number of cycles access was blocked (Cycle)
system.cpu.dcache.blockedCycles::no_targets            0                       # number of cycles access was blocked (Cycle)
system.cpu.dcache.blockedCauses::no_mshrs           15                       # number of times access was blocked (Count)
system.cpu.dcache.blockedCauses::no_targets            0                       # number of times access was blocked (Count)
system.cpu.dcache.avgBlocked::no_mshrs      35.600000                       # average number of cycles each access was blocked ((Cycle/Count))
system.cpu.dcache.avgBlocked::no_targets          nan                       # average number of cycles each access was blocked ((Cycle/Count))
system.cpu.dcache.writebacks::writebacks          202                       # number of writebacks (Count)
system.cpu.dcache.writebacks::total               202                       # number of writebacks (Count)
system.cpu.dcache.demandMshrHits::cpu.data          886                       # number of demand (read+write) MSHR hits (Count)
system.cpu.dcache.demandMshrHits::total           886                       # number of demand (read+write) MSHR hits (Count)
system.cpu.dcache.overallMshrHits::cpu.data          886                       # number of overall MSHR hits (Count)
system.cpu.dcache.overallMshrHits::total          886                       # number of overall MSHR hits (Count)
system.cpu.dcache.demandMshrMisses::cpu.data         1307                       # number of demand (read+write) MSHR misses (Count)
system.cpu.dcache.demandMshrMisses::total         1307                       # number of demand (read+write) MSHR misses (Count)
system.cpu.dcache.overallMshrMisses::cpu.data         1307                       # number of overall MSHR misses (Count)
system.cpu.dcache.overallMshrMisses::total         1307                       # number of overall MSHR misses (Count)
system.cpu.dcache.demandMshrMissLatency::cpu.data    133434000                       # number of demand (read+write) MSHR miss ticks (Tick)
system.cpu.dcache.demandMshrMissLatency::total    133434000                       # number of demand (read+write) MSHR miss ticks (Tick)
system.cpu.dcache.overallMshrMissLatency::cpu.data    133434000                       # number of overall MSHR miss ticks (Tick)
system.cpu.dcache.overallMshrMissLatency::total    133434000                       # number of overall MSHR miss ticks (Tick)
system.cpu.dcache.demandMshrMissRate::cpu.data     0.001828                       # mshr miss ratio for demand accesses (Ratio)
system.cpu.dcache.demandMshrMissRate::total     0.001828                       # mshr miss ratio for demand accesses (Ratio)
system.cpu.dcache.overallMshrMissRate::cpu.data     0.001828                       # mshr miss ratio for overall accesses (Ratio)
system.cpu.dcache.overallMshrMissRate::total     0.001828                       # mshr miss ratio for overall accesses (Ratio)
system.cpu.dcache.demandAvgMshrMissLatency::cpu.data 102091.813313                       # average overall mshr miss latency ((Cycle/Count))
system.cpu.dcache.demandAvgMshrMissLatency::total 102091.813313                       # average overall mshr miss latency ((Cycle/Count))
system.cpu.dcache.overallAvgMshrMissLatency::cpu.data 102091.813313                       # average overall mshr miss latency ((Cycle/Count))
system.cpu.dcache.overallAvgMshrMissLatency::total 102091.813313                       # average overall mshr miss latency ((Cycle/Count))
system.cpu.dcache.replacements                    283                       # number of replacements (Count)
system.cpu.dcache.ReadReq.hits::cpu.data       433640                       # number of ReadReq hits (Count)
system.cpu.dcache.ReadReq.hits::total          433640                       # number of ReadReq hits (Count)
system.cpu.dcache.ReadReq.misses::cpu.data         1544                       # number of ReadReq misses (Count)
system.cpu.dcache.ReadReq.misses::total          1544                       # number of ReadReq misses (Count)
system.cpu.dcache.ReadReq.missLatency::cpu.data    144307000                       # number of ReadReq miss ticks (Tick)
system.cpu.dcache.ReadReq.missLatency::total    144307000                       # number of ReadReq miss ticks (Tick)
system.cpu.dcache.ReadReq.accesses::cpu.data       435184                       # number of ReadReq accesses(hits+misses) (Count)
system.cpu.dcache.ReadReq.accesses::total       435184                       # number of ReadReq accesses(hits+misses) (Count)
system.cpu.dcache.ReadReq.missRate::cpu.data     0.003548                       # miss rate for ReadReq accesses (Ratio)
system.cpu.dcache.ReadReq.missRate::total     0.003548                       # miss rate for ReadReq accesses (Ratio)
system.cpu.dcache.ReadReq.avgMissLatency::cpu.data 93463.082902                       # average ReadReq miss latency ((Tick/Count))
system.cpu.dcache.ReadReq.avgMissLatency::total 93463.082902                       # average ReadReq miss latency ((Tick/Count))
system.cpu.dcache.ReadReq.mshrHits::cpu.data          883                       # number of ReadReq MSHR hits (Count)
system.cpu.dcache.ReadReq.mshrHits::total          883                       # number of ReadReq MSHR hits (Count)
system.cpu.dcache.ReadReq.mshrMisses::cpu.data          661                       # number of ReadReq MSHR misses (Count)
system.cpu.dcache.ReadReq.mshrMisses::total          661                       # number of ReadReq MSHR misses (Count)
system.cpu.dcache.ReadReq.mshrMissLatency::cpu.data     67868000                       # number of ReadReq MSHR miss ticks (Tick)
system.cpu.dcache.ReadReq.mshrMissLatency::total     67868000                       # number of ReadReq MSHR miss ticks (Tick)
system.cpu.dcache.ReadReq.mshrMissRate::cpu.data     0.001519                       # mshr miss rate for ReadReq accesses (Ratio)
system.cpu.dcache.ReadReq.mshrMissRate::total     0.001519                       # mshr miss rate for ReadReq accesses (Ratio)
system.cpu.dcache.ReadReq.avgMshrMissLatency::cpu.data 102674.735250                       # average ReadReq mshr miss latency ((Tick/Count))
system.cpu.dcache.ReadReq.avgMshrMissLatency::total 102674.735250                       # average ReadReq mshr miss latency ((Tick/Count))
system.cpu.dcache.WriteReq.hits::cpu.data       279270                       # number of WriteReq hits (Count)
system.cpu.dcache.WriteReq.hits::total         279270                       # number of WriteReq hits (Count)
system.cpu.dcache.WriteReq.misses::cpu.data          649                       # number of WriteReq misses (Count)
system.cpu.dcache.WriteReq.misses::total          649                       # number of WriteReq misses (Count)
system.cpu.dcache.WriteReq.missLatency::cpu.data     67007000                       # number of WriteReq miss ticks (Tick)
system.cpu.dcache.WriteReq.missLatency::total     67007000                       # number of WriteReq miss ticks (Tick)
system.cpu.dcache.WriteReq.accesses::cpu.data       279919                       # number of WriteReq accesses(hits+misses) (Count)
system.cpu.dcache.WriteReq.accesses::total       279919                       # number of WriteReq accesses(hits+misses) (Count)
system.cpu.dcache.WriteReq.missRate::cpu.data     0.002319                       # miss rate for WriteReq accesses (Ratio)
system.cpu.dcache.WriteReq.missRate::total     0.002319                       # miss rate for WriteReq accesses (Ratio)
system.cpu.dcache.WriteReq.avgMissLatency::cpu.data 103246.533128                       # average WriteReq miss latency ((Tick/Count))
system.cpu.dcache.WriteReq.avgMissLatency::total 103246.533128                       # average WriteReq miss latency ((Tick/Count))
system.cpu.dcache.WriteReq.mshrHits::cpu.data            3                       # number of WriteReq MSHR hits (Count)
system.cpu.dcache.WriteReq.mshrHits::total            3                       # number of WriteReq MSHR hits (Count)
system.cpu.dcache.WriteReq.mshrMisses::cpu.data          646                       # number of WriteReq MSHR misses (Count)
system.cpu.dcache.WriteReq.mshrMisses::total          646                       # number of WriteReq MSHR misses (Count)
system.cpu.dcache.WriteReq.mshrMissLatency::cpu.data     65566000                       # number of WriteReq MSHR miss ticks (Tick)
system.cpu.dcache.WriteReq.mshrMissLatency::total     65566000                       # number of WriteReq MSHR miss ticks (Tick)
system.cpu.dcache.WriteReq.mshrMissRate::cpu.data     0.002308                       # mshr miss rate for WriteReq accesses (Ratio)
system.cpu.dcache.WriteReq.mshrMissRate::total     0.002308                       # mshr miss rate for WriteReq accesses (Ratio)
system.cpu.dcache.WriteReq.avgMshrMissLatency::cpu.data 101495.356037                       # average WriteReq mshr miss latency ((Tick/Count))
system.cpu.dcache.WriteReq.avgMshrMissLatency::total 101495.356037                       # average WriteReq mshr miss latency ((Tick/Count))
system.cpu.dcache.power_state.pwrStateResidencyTicks::UNDEFINED   1793427000                       # Cumulative time (in ticks) in various power states (Tick)
system.cpu.dcache.tags.tagsInUse           693.046502                       # Average ticks per tags in use ((Tick/Count))
system.cpu.dcache.tags.totalRefs               714217                       # Total number of references to valid blocks. (Count)
system.cpu.dcache.tags.sampledRefs               1307                       # Sample count of references to valid blocks. (Count)
system.cpu.dcache.tags.avgRefs             546.455241                       # Average number of references to valid blocks. ((Count/Count))
system.cpu.dcache.tags.warmupTick              222000                       # The tick when the warmup percentage was hit. (Tick)
system.cpu.dcache.tags.occupancies::cpu.data   693.046502                       # Average occupied blocks per tick, per requestor ((Count/Tick))
system.cpu.dcache.tags.avgOccs::cpu.data     0.676803                       # Average percentage of cache occupancy ((Ratio/Tick))
system.cpu.dcache.tags.avgOccs::total        0.676803                       # Average percentage of cache occupancy ((Ratio/Tick))
system.cpu.dcache.tags.occupanciesTaskId::1024         1024                       # Occupied blocks per task id (Count)
system.cpu.dcache.tags.ageTaskId_1024::0           39                       # Occupied blocks per task id, per block age (Count)
system.cpu.dcache.tags.ageTaskId_1024::1           10                       # Occupied blocks per task id, per block age (Count)
system.cpu.dcache.tags.ageTaskId_1024::2          476                       # Occupied blocks per task id, per block age (Count)
system.cpu.dcache.tags.ageTaskId_1024::3          499                       # Occupied blocks per task id, per block age (Count)
system.cpu.dcache.tags.ratioOccsTaskId::1024            1                       # Ratio of occupied blocks and all blocks, per task id (Ratio)
system.cpu.dcache.tags.tagAccesses            1431513                       # Number of tag accesses (Count)
system.cpu.dcache.tags.dataAccesses           1431513                       # Number of data accesses (Count)
system.cpu.dcache.tags.power_state.pwrStateResidencyTicks::UNDEFINED   1793427000                       # Cumulative time (in ticks) in various power states (Tick)
system.cpu.decode.idleCycles                   456527                       # Number of cycles decode is idle (Cycle)
system.cpu.decode.blockedCycles                228898                       # Number of cycles decode is blocked (Cycle)
system.cpu.decode.runCycles                    966888                       # Number of cycles decode is running (Cycle)
system.cpu.decode.unblockCycles                 63879                       # Number of cycles decode is unblocking (Cycle)
system.cpu.decode.squashCycles                  56868                       # Number of cycles decode is squashing (Cycle)
system.cpu.decode.branchResolved               265206                       # Number of times decode resolved a branch (Count)
system.cpu.decode.branchMispred                  1977                       # Number of times decode detected a branch misprediction (Count)
system.cpu.decode.decodedInsts                6598173                       # Number of instructions handled by decode (Count)
system.cpu.decode.squashedInsts                  9695                       # Number of squashed instructions handled by decode (Count)
system.cpu.fetch.icacheStallCycles             525151                       # Number of cycles fetch is stalled on an Icache miss (Cycle)
system.cpu.fetch.insts                        4129816                       # Number of instructions fetch has processed (Count)
system.cpu.fetch.branches                      887428                       # Number of branches that fetch encountered (Count)
system.cpu.fetch.predictedBranches             285628                       # Number of branches that fetch has predicted taken (Count)
system.cpu.fetch.cycles                       1188064                       # Number of cycles fetch has run and was not squashing or blocked (Cycle)
system.cpu.fetch.squashCycles                  117596                       # Number of cycles fetch has spent squashing (Cycle)
system.cpu.fetch.miscStallCycles                  114                       # Number of cycles fetch has spent waiting on interrupts, or bad addresses, or out of MSHRs (Cycle)
system.cpu.fetch.pendingTrapStallCycles           647                       # Number of stall cycles due to pending traps (Cycle)
system.cpu.fetch.pendingQuiesceStallCycles            2                       # Number of stall cycles due to pending quiesce instructions (Cycle)
system.cpu.fetch.icacheWaitRetryStallCycles          284                       # Number of stall cycles due to full MSHR (Cycle)
system.cpu.fetch.cacheLines                    491823                       # Number of cache lines fetched (Count)
system.cpu.fetch.icacheSquashes                 15790                       # Number of outstanding Icache misses that were squashed (Count)
system.cpu.fetch.nisnDist::samples            1773060                       # Number of instructions fetched each cycle (Total) (Count)
system.cpu.fetch.nisnDist::mean              3.881323                       # Number of instructions fetched each cycle (Total) (Count)
system.cpu.fetch.nisnDist::stdev             3.453441                       # Number of instructions fetched each cycle (Total) (Count)
system.cpu.fetch.nisnDist::underflows               0      0.00%      0.00% # Number of instructions fetched each cycle (Total) (Count)
system.cpu.fetch.nisnDist::0                   627841     35.41%     35.41% # Number of instructions fetched each cycle (Total) (Count)
system.cpu.fetch.nisnDist::1                    29833      1.68%     37.09% # Number of instructions fetched each cycle (Total) (Count)
system.cpu.fetch.nisnDist::2                   159340      8.99%     46.08% # Number of instructions fetched each cycle (Total) (Count)
system.cpu.fetch.nisnDist::3                    14013      0.79%     46.87% # Number of instructions fetched each cycle (Total) (Count)
system.cpu.fetch.nisnDist::4                   120871      6.82%     53.69% # Number of instructions fetched each cycle (Total) (Count)
system.cpu.fetch.nisnDist::5                   155562      8.77%     62.46% # Number of instructions fetched each cycle (Total) (Count)
system.cpu.fetch.nisnDist::6                    32114      1.81%     64.27% # Number of instructions fetched each cycle (Total) (Count)
system.cpu.fetch.nisnDist::7                    30599      1.73%     66.00% # Number of instructions fetched each cycle (Total) (Count)
system.cpu.fetch.nisnDist::8                   602887     34.00%    100.00% # Number of instructions fetched each cycle (Total) (Count)
system.cpu.fetch.nisnDist::overflows                0      0.00%    100.00% # Number of instructions fetched each cycle (Total) (Count)
system.cpu.fetch.nisnDist::min_value                0                       # Number of instructions fetched each cycle (Total) (Count)
system.cpu.fetch.nisnDist::max_value                8                       # Number of instructions fetched each cycle (Total) (Count)
system.cpu.fetch.nisnDist::total              1773060                       # Number of instructions fetched each cycle (Total) (Count)
system.cpu.fetch.branchRate                  0.494822                       # Number of branch fetches per cycle (Ratio)
system.cpu.fetch.rate                        2.302750                       # Number of inst fetches per cycle ((Count/Cycle))
system.cpu.icache.demandHits::cpu.inst         491202                       # number of demand (read+write) hits (Count)
system.cpu.icache.demandHits::total            491202                       # number of demand (read+write) hits (Count)
system.cpu.icache.overallHits::cpu.inst        491202                       # number of overall hits (Count)
system.cpu.icache.overallHits::total           491202                       # number of overall hits (Count)
system.cpu.icache.demandMisses::cpu.inst          621                       # number of demand (read+write) misses (Count)
system.cpu.icache.demandMisses::total             621                       # number of demand (read+write) misses (Count)
system.cpu.icache.overallMisses::cpu.inst          621                       # number of overall misses (Count)
system.cpu.icache.overallMisses::total            621                       # number of overall misses (Count)
system.cpu.icache.demandMissLatency::cpu.inst     60127998                       # number of demand (read+write) miss ticks (Tick)
system.cpu.icache.demandMissLatency::total     60127998                       # number of demand (read+write) miss ticks (Tick)
system.cpu.icache.overallMissLatency::cpu.inst     60127998                       # number of overall miss ticks (Tick)
system.cpu.icache.overallMissLatency::total     60127998                       # number of overall miss ticks (Tick)
system.cpu.icache.demandAccesses::cpu.inst       491823                       # number of demand (read+write) accesses (Count)
system.cpu.icache.demandAccesses::total        491823                       # number of demand (read+write) accesses (Count)
system.cpu.icache.overallAccesses::cpu.inst       491823                       # number of overall (read+write) accesses (Count)
system.cpu.icache.overallAccesses::total       491823                       # number of overall (read+write) accesses (Count)
system.cpu.icache.demandMissRate::cpu.inst     0.001263                       # miss rate for demand accesses (Ratio)
system.cpu.icache.demandMissRate::total      0.001263                       # miss rate for demand accesses (Ratio)
system.cpu.icache.overallMissRate::cpu.inst     0.001263                       # miss rate for overall accesses (Ratio)
system.cpu.icache.overallMissRate::total     0.001263                       # miss rate for overall accesses (Ratio)
system.cpu.icache.demandAvgMissLatency::cpu.inst 96824.473430                       # average overall miss latency ((Cycle/Count))
system.cpu.icache.demandAvgMissLatency::total 96824.473430                       # average overall miss latency ((Cycle/Count))
system.cpu.icache.overallAvgMissLatency::cpu.inst 96824.473430                       # average overall miss latency ((Cycle/Count))
system.cpu.icache.overallAvgMissLatency::total 96824.473430                       # average overall miss latency ((Cycle/Count))
system.cpu.icache.blockedCycles::no_mshrs          410                       # number of cycles access was blocked (Cycle)
system.cpu.icache.blockedCycles::no_targets            0                       # number of cycles access was blocked (Cycle)
system.cpu.icache.blockedCauses::no_mshrs            5                       # number of times access was blocked (Count)
system.cpu.icache.blockedCauses::no_targets            0                       # number of times access was blocked (Count)
system.cpu.icache.avgBlocked::no_mshrs             82                       # average number of cycles each access was blocked ((Cycle/Count))
[...]
system.mem_ctrl.requestorReadAvgLat::cpu.inst     28405.01                       # Per-requestor read average memory access latency ((Tick/Count))
system.mem_ctrl.requestorReadAvgLat::cpu.data     30333.99                       # Per-requestor read average memory access latency ((Tick/Count))
system.mem_ctrl.dram.bytesRead::cpu.inst        30656                       # Number of bytes read from this memory (Byte)
system.mem_ctrl.dram.bytesRead::cpu.data        80960                       # Number of bytes read from this memory (Byte)
system.mem_ctrl.dram.bytesRead::total          111616                       # Number of bytes read from this memory (Byte)
system.mem_ctrl.dram.bytesInstRead::cpu.inst        30656                       # Number of instructions bytes read from this memory (Byte)
system.mem_ctrl.dram.bytesInstRead::total        30656                       # Number of instructions bytes read from this memory (Byte)
system.mem_ctrl.dram.numReads::cpu.inst           479                       # Number of read requests responded to by this memory (Count)
system.mem_ctrl.dram.numReads::cpu.data          1265                       # Number of read requests responded to by this memory (Count)
system.mem_ctrl.dram.numReads::total             1744                       # Number of read requests responded to by this memory (Count)
system.mem_ctrl.dram.bwRead::cpu.inst        17093531                       # Total read bandwidth from this memory ((Byte/Second))
system.mem_ctrl.dram.bwRead::cpu.data        45142624                       # Total read bandwidth from this memory ((Byte/Second))
system.mem_ctrl.dram.bwRead::total           62236155                       # Total read bandwidth from this memory ((Byte/Second))
system.mem_ctrl.dram.bwInstRead::cpu.inst     17093531                       # Instruction read bandwidth from this memory ((Byte/Second))
system.mem_ctrl.dram.bwInstRead::total       17093531                       # Instruction read bandwidth from this memory ((Byte/Second))
system.mem_ctrl.dram.bwTotal::cpu.inst       17093531                       # Total bandwidth to/from this memory ((Byte/Second))
system.mem_ctrl.dram.bwTotal::cpu.data       45142624                       # Total bandwidth to/from this memory ((Byte/Second))
system.mem_ctrl.dram.bwTotal::total          62236155                       # Total bandwidth to/from this memory ((Byte/Second))
system.mem_ctrl.dram.readBursts                  1744                       # Number of DRAM read bursts (Count)
system.mem_ctrl.dram.writeBursts                    0                       # Number of DRAM write bursts (Count)
system.mem_ctrl.dram.perBankRdBursts::0           121                       # Per bank write bursts (Count)
system.mem_ctrl.dram.perBankRdBursts::1           130                       # Per bank write bursts (Count)
system.mem_ctrl.dram.perBankRdBursts::2           145                       # Per bank write bursts (Count)
system.mem_ctrl.dram.perBankRdBursts::3           190                       # Per bank write bursts (Count)
system.mem_ctrl.dram.perBankRdBursts::4           138                       # Per bank write bursts (Count)
system.mem_ctrl.dram.perBankRdBursts::5           121                       # Per bank write bursts (Count)
system.mem_ctrl.dram.perBankRdBursts::6            36                       # Per bank write bursts (Count)
system.mem_ctrl.dram.perBankRdBursts::7           124                       # Per bank write bursts (Count)
system.mem_ctrl.dram.perBankRdBursts::8           207                       # Per bank write bursts (Count)
system.mem_ctrl.dram.perBankRdBursts::9           147                       # Per bank write bursts (Count)
system.mem_ctrl.dram.perBankRdBursts::10          159                       # Per bank write bursts (Count)
system.mem_ctrl.dram.perBankRdBursts::11           58                       # Per bank write bursts (Count)
system.mem_ctrl.dram.perBankRdBursts::12           17                       # Per bank write bursts (Count)
system.mem_ctrl.dram.perBankRdBursts::13           77                       # Per bank write bursts (Count)
system.mem_ctrl.dram.perBankRdBursts::14           40                       # Per bank write bursts (Count)
system.mem_ctrl.dram.perBankRdBursts::15           34                       # Per bank write bursts (Count)
system.mem_ctrl.dram.perBankWrBursts::0             0                       # Per bank write bursts (Count)
system.mem_ctrl.dram.perBankWrBursts::1             0                       # Per bank write bursts (Count)
system.mem_ctrl.dram.perBankWrBursts::2             0                       # Per bank write bursts (Count)
system.mem_ctrl.dram.perBankWrBursts::3             0                       # Per bank write bursts (Count)
system.mem_ctrl.dram.perBankWrBursts::4             0                       # Per bank write bursts (Count)
system.mem_ctrl.dram.perBankWrBursts::5             0                       # Per bank write bursts (Count)
system.mem_ctrl.dram.perBankWrBursts::6             0                       # Per bank write bursts (Count)
system.mem_ctrl.dram.perBankWrBursts::7             0                       # Per bank write bursts (Count)
system.mem_ctrl.dram.perBankWrBursts::8             0                       # Per bank write bursts (Count)
system.mem_ctrl.dram.perBankWrBursts::9             0                       # Per bank write bursts (Count)
system.mem_ctrl.dram.perBankWrBursts::10            0                       # Per bank write bursts (Count)
system.mem_ctrl.dram.perBankWrBursts::11            0                       # Per bank write bursts (Count)
system.mem_ctrl.dram.perBankWrBursts::12            0                       # Per bank write bursts (Count)
system.mem_ctrl.dram.perBankWrBursts::13            0                       # Per bank write bursts (Count)
system.mem_ctrl.dram.perBankWrBursts::14            0                       # Per bank write bursts (Count)
system.mem_ctrl.dram.perBankWrBursts::15            0                       # Per bank write bursts (Count)
system.mem_ctrl.dram.totQLat                 19278500                       # Total ticks spent queuing (Tick)
system.mem_ctrl.dram.totBusLat                8720000                       # Total ticks spent in databus transfers (Tick)
system.mem_ctrl.dram.totMemAccLat            51978500                       # Total ticks spent from burst creation until serviced by the DRAM (Tick)
system.mem_ctrl.dram.avgQLat                 11054.19                       # Average queueing delay per DRAM burst ((Tick/Count))
system.mem_ctrl.dram.avgBusLat                5000.00                       # Average bus latency per DRAM burst ((Tick/Count))
system.mem_ctrl.dram.avgMemAccLat            29804.19                       # Average memory access latency per DRAM burst ((Tick/Count))
system.mem_ctrl.dram.readRowHits                 1268                       # Number of row buffer hits during reads (Count)
system.mem_ctrl.dram.writeRowHits                   0                       # Number of row buffer hits during writes (Count)
system.mem_ctrl.dram.readRowHitRate             72.71                       # Row buffer hit rate for reads (Ratio)
system.mem_ctrl.dram.writeRowHitRate              nan                       # Row buffer hit rate for writes (Ratio)
system.mem_ctrl.dram.bytesPerActivate::samples          472                       # Bytes accessed per row activation (Byte)
system.mem_ctrl.dram.bytesPerActivate::mean   234.169492                       # Bytes accessed per row activation (Byte)
system.mem_ctrl.dram.bytesPerActivate::gmean   189.000779                       # Bytes accessed per row activation (Byte)
system.mem_ctrl.dram.bytesPerActivate::stdev   182.552150                       # Bytes accessed per row activation (Byte)
system.mem_ctrl.dram.bytesPerActivate::0-127           80     16.95%     16.95% # Bytes accessed per row activation (Byte)
system.mem_ctrl.dram.bytesPerActivate::128-255          165     34.96%     51.91% # Bytes accessed per row activation (Byte)
system.mem_ctrl.dram.bytesPerActivate::256-383          188     39.83%     91.74% # Bytes accessed per row activation (Byte)
system.mem_ctrl.dram.bytesPerActivate::384-511            7      1.48%     93.22% # Bytes accessed per row activation (Byte)
system.mem_ctrl.dram.bytesPerActivate::512-639            5      1.06%     94.28% # Bytes accessed per row activation (Byte)
system.mem_ctrl.dram.bytesPerActivate::640-767            7      1.48%     95.76% # Bytes accessed per row activation (Byte)
system.mem_ctrl.dram.bytesPerActivate::768-895            7      1.48%     97.25% # Bytes accessed per row activation (Byte)
system.mem_ctrl.dram.bytesPerActivate::896-1023            1      0.21%     97.46% # Bytes accessed per row activation (Byte)
system.mem_ctrl.dram.bytesPerActivate::1024-1151           12      2.54%    100.00% # Bytes accessed per row activation (Byte)
system.mem_ctrl.dram.bytesPerActivate::total          472                       # Bytes accessed per row activation (Byte)
system.mem_ctrl.dram.bytesRead                 111616                       # Total bytes read (Byte)
system.mem_ctrl.dram.bytesWritten                   0                       # Total bytes written (Byte)
system.mem_ctrl.dram.avgRdBW                62.236155                       # Average DRAM read bandwidth in MiBytes/s ((Byte/Second))
system.mem_ctrl.dram.avgWrBW                        0                       # Average DRAM write bandwidth in MiBytes/s ((Byte/Second))
system.mem_ctrl.dram.peakBW                  12800.00                       # Theoretical peak bandwidth in MiByte/s ((Byte/Second))
system.mem_ctrl.dram.busUtil                     0.49                       # Data bus utilization in percentage (Ratio)
system.mem_ctrl.dram.busUtilRead                 0.49                       # Data bus utilization in percentage for reads (Ratio)
system.mem_ctrl.dram.busUtilWrite                0.00                       # Data bus utilization in percentage for writes (Ratio)
system.mem_ctrl.dram.pageHitRate                72.71                       # Row buffer hit rate, read and write combined (Ratio)
system.mem_ctrl.dram.power_state.pwrStateResidencyTicks::UNDEFINED   1793427000                       # Cumulative time (in ticks) in various power states (Tick)
system.mem_ctrl.dram.rank0.actEnergy          2049180                       # Energy for activate commands per rank (pJ) (Joule)
system.mem_ctrl.dram.rank0.preEnergy          1081575                       # Energy for precharge commands per rank (pJ) (Joule)
system.mem_ctrl.dram.rank0.readEnergy         7175700                       # Energy for read commands per rank (pJ) (Joule)
system.mem_ctrl.dram.rank0.writeEnergy              0                       # Energy for write commands per rank (pJ) (Joule)
system.mem_ctrl.dram.rank0.refreshEnergy 141367200.000000                       # Energy for refresh commands per rank (pJ) (Joule)
system.mem_ctrl.dram.rank0.actBackEnergy    483484260                       # Energy for active background per rank (pJ) (Joule)
system.mem_ctrl.dram.rank0.preBackEnergy    281531520                       # Energy for precharge background per rank (pJ) (Joule)
system.mem_ctrl.dram.rank0.actPowerDownEnergy            0                       # Energy for active power-down per rank (pJ) (Joule)
system.mem_ctrl.dram.rank0.prePowerDownEnergy            0                       # Energy for precharge power-down per rank (pJ) (Joule)
system.mem_ctrl.dram.rank0.selfRefreshEnergy            0                       # Energy for self refresh per rank (pJ) (Joule)
system.mem_ctrl.dram.rank0.totalEnergy      916689435                       # Total energy per rank (pJ) (Joule)
system.mem_ctrl.dram.rank0.averagePower    511.138415                       # Core power per rank (mW) (Watt)
system.mem_ctrl.dram.rank0.totalIdleTime            0                       # Total Idle time Per DRAM Rank (Tick)
system.mem_ctrl.dram.rank0.pwrStateTime::IDLE    727672000                       # Time in different power states (Tick)
system.mem_ctrl.dram.rank0.pwrStateTime::REF     59800000                       # Time in different power states (Tick)
system.mem_ctrl.dram.rank0.pwrStateTime::SREF            0                       # Time in different power states (Tick)
system.mem_ctrl.dram.rank0.pwrStateTime::PRE_PDN            0                       # Time in different power states (Tick)
system.mem_ctrl.dram.rank0.pwrStateTime::ACT   1005955000                       # Time in different power states (Tick)
system.mem_ctrl.dram.rank0.pwrStateTime::ACT_PDN            0                       # Time in different power states (Tick)
system.mem_ctrl.dram.rank1.actEnergy          1349460                       # Energy for activate commands per rank (pJ) (Joule)
system.mem_ctrl.dram.rank1.preEnergy           709665                       # Energy for precharge commands per rank (pJ) (Joule)
system.mem_ctrl.dram.rank1.readEnergy         5276460                       # Energy for read commands per rank (pJ) (Joule)
system.mem_ctrl.dram.rank1.writeEnergy              0                       # Energy for write commands per rank (pJ) (Joule)
system.mem_ctrl.dram.rank1.refreshEnergy 141367200.000000                       # Energy for refresh commands per rank (pJ) (Joule)
system.mem_ctrl.dram.rank1.actBackEnergy    374288790                       # Energy for active background per rank (pJ) (Joule)
system.mem_ctrl.dram.rank1.preBackEnergy    373485600                       # Energy for precharge background per rank (pJ) (Joule)
system.mem_ctrl.dram.rank1.actPowerDownEnergy            0                       # Energy for active power-down per rank (pJ) (Joule)
system.mem_ctrl.dram.rank1.prePowerDownEnergy            0                       # Energy for precharge power-down per rank (pJ) (Joule)
system.mem_ctrl.dram.rank1.selfRefreshEnergy            0                       # Energy for self refresh per rank (pJ) (Joule)
system.mem_ctrl.dram.rank1.totalEnergy      896477175                       # Total energy per rank (pJ) (Joule)
system.mem_ctrl.dram.rank1.averagePower    499.868227                       # Core power per rank (mW) (Watt)
system.mem_ctrl.dram.rank1.totalIdleTime            0                       # Total Idle time Per DRAM Rank (Tick)
system.mem_ctrl.dram.rank1.pwrStateTime::IDLE    967660750                       # Time in different power states (Tick)
system.mem_ctrl.dram.rank1.pwrStateTime::REF     59800000                       # Time in different power states (Tick)
system.mem_ctrl.dram.rank1.pwrStateTime::SREF            0                       # Time in different power states (Tick)
system.mem_ctrl.dram.rank1.pwrStateTime::PRE_PDN            0                       # Time in different power states (Tick)
system.mem_ctrl.dram.rank1.pwrStateTime::ACT    765966250                       # Time in different power states (Tick)
system.mem_ctrl.dram.rank1.pwrStateTime::ACT_PDN            0                       # Time in different power states (Tick)
system.mem_ctrl.power_state.pwrStateResidencyTicks::UNDEFINED   1793427000                       # Cumulative time (in ticks) in various power states (Tick)
system.membus.transDist::ReadResp                1117                       # Transaction distribution (Count)
system.membus.transDist::ReadExReq                627                       # Transaction distribution (Count)
system.membus.transDist::ReadExResp               627                       # Transaction distribution (Count)
system.membus.transDist::ReadSharedReq           1117                       # Transaction distribution (Count)
system.membus.pktCount_system.L2cache.mem_side_port::system.mem_ctrl.port         3488                       # Packet count per connected requestor and responder (Count)
system.membus.pktCount_system.L2cache.mem_side_port::total         3488                       # Packet count per connected requestor and responder (Count)
system.membus.pktCount::total                    3488                       # Packet count per connected requestor and responder (Count)
system.membus.pktSize_system.L2cache.mem_side_port::system.mem_ctrl.port       111616                       # Cumulative packet size per connected requestor and responder (Byte)
system.membus.pktSize_system.L2cache.mem_side_port::total       111616                       # Cumulative packet size per connected requestor and responder (Byte)
system.membus.pktSize::total                   111616                       # Cumulative packet size per connected requestor and responder (Byte)
system.membus.snoops                                0                       # Total snoops (Count)
system.membus.snoopTraffic                          0                       # Total snoop traffic (Byte)
system.membus.snoopFanout::samples               1744                       # Request fanout histogram (Count)
system.membus.snoopFanout::mean                     0                       # Request fanout histogram (Count)
system.membus.snoopFanout::stdev                    0                       # Request fanout histogram (Count)
system.membus.snoopFanout::underflows               0      0.00%      0.00% # Request fanout histogram (Count)
system.membus.snoopFanout::0                     1744    100.00%    100.00% # Request fanout histogram (Count)
system.membus.snoopFanout::1                        0      0.00%    100.00% # Request fanout histogram (Count)
system.membus.snoopFanout::overflows                0      0.00%    100.00% # Request fanout histogram (Count)
system.membus.snoopFanout::min_value                0                       # Request fanout histogram (Count)
system.membus.snoopFanout::max_value                0                       # Request fanout histogram (Count)
system.membus.snoopFanout::total                 1744                       # Request fanout histogram (Count)
system.membus.power_state.pwrStateResidencyTicks::UNDEFINED   1793427000                       # Cumulative time (in ticks) in various power states (Tick)
system.membus.reqLayer2.occupancy             1744000                       # Layer occupancy (ticks) (Tick)
system.membus.reqLayer2.utilization               0.0                       # Layer utilization (Ratio)
system.membus.respLayer0.occupancy            9265250                       # Layer occupancy (ticks) (Tick)
system.membus.respLayer0.utilization              0.0                       # Layer utilization (Ratio)
system.membus.snoop_filter.totRequests           1744                       # Total number of requests made to the snoop filter. (Count)
system.membus.snoop_filter.hitSingleRequests            0                       # Number of requests hitting in the snoop filter with a single holder of the requested data. (Count)
system.membus.snoop_filter.hitMultiRequests            0                       # Number of requests hitting in the snoop filter with multiple (>1) holders of the requested data. (Count)
system.membus.snoop_filter.totSnoops                0                       # Total number of snoops made to the snoop filter. (Count)
system.membus.snoop_filter.hitSingleSnoops            0                       # Number of snoops hitting in the snoop filter with a single holder of the requested data. (Count)
system.membus.snoop_filter.hitMultiSnoops            0                       # Number of snoops hitting in the snoop filter with multiple (>1) holders of the requested data. (Count)
system.workload.inst.arm                            0                       # number of arm instructions executed (Count)
system.workload.inst.quiesce                        0                       # number of quiesce instructions executed (Count)

---------- End Simulation Statistics   ----------
