
---------- Begin Simulation Statistics ----------
simSeconds                                   0.012668                       # Number of seconds simulated (Second)
simTicks                                  12668154000                       # Number of ticks simulated (Tick)
finalTick                                 12668154000                       # Number of ticks from beginning of simulation (restored from checkpoints and never reset) (Tick)
simFreq                                  1000000000000                       # The number of ticks per simulated second ((Tick/Second))
hostSeconds                                     65.29                       # Real time elapsed on the host (Second)
hostTickRate                                194041374                       # The number of ticks simulated per host second (ticks/s) ((Tick/Second))
hostMemory                                    1243484                       # Number of bytes of host memory used (Byte)
simInsts                                     11243713                       # Number of instructions simulated (Count)
simOps                                       22413851                       # Number of ops (including micro ops) simulated (Count)
hostInstRate                                   172223                       # Simulator instruction rate (inst/s) ((Count/Second))
hostOpRate                                     343318                       # Simulator op (including micro ops) rate (op/s) ((Count/Second))
system.L2cache.demandHits::cpu.data           1355276                       # number of demand (read+write) hits (Count)
system.L2cache.demandHits::total              1355276                       # number of demand (read+write) hits (Count)
system.L2cache.overallHits::cpu.data          1355276                       # number of overall hits (Count)
system.L2cache.overallHits::total             1355276                       # number of overall hits (Count)
system.L2cache.demandMisses::cpu.inst             468                       # number of demand (read+write) misses (Count)
system.L2cache.demandMisses::cpu.data           70466                       # number of demand (read+write) misses (Count)
system.L2cache.demandMisses::total              70934                       # number of demand (read+write) misses (Count)
system.L2cache.overallMisses::cpu.inst            468                       # number of overall misses (Count)
system.L2cache.overallMisses::cpu.data          70466                       # number of overall misses (Count)
system.L2cache.overallMisses::total             70934                       # number of overall misses (Count)
system.L2cache.demandMissLatency::cpu.inst     45899000                       # number of demand (read+write) miss ticks (Tick)
system.L2cache.demandMissLatency::cpu.data   6821730000                       # number of demand (read+write) miss ticks (Tick)
system.L2cache.demandMissLatency::total    6867629000                       # number of demand (read+write) miss ticks (Tick)
system.L2cache.overallMissLatency::cpu.inst     45899000                       # number of overall miss ticks (Tick)
system.L2cache.overallMissLatency::cpu.data   6821730000                       # number of overall miss ticks (Tick)
system.L2cache.overallMissLatency::total   6867629000                       # number of overall miss ticks (Tick)
system.L2cache.demandAccesses::cpu.inst           468                       # number of demand (read+write) accesses (Count)
system.L2cache.demandAccesses::cpu.data       1425742                       # number of demand (read+write) accesses (Count)
system.L2cache.demandAccesses::total          1426210                       # number of demand (read+write) accesses (Count)
system.L2cache.overallAccesses::cpu.inst          468                       # number of overall (read+write) accesses (Count)
system.L2cache.overallAccesses::cpu.data      1425742                       # number of overall (read+write) accesses (Count)
system.L2cache.overallAccesses::total         1426210                       # number of overall (read+write) accesses (Count)
system.L2cache.demandMissRate::cpu.inst             1                       # miss rate for demand accesses (Ratio)
system.L2cache.demandMissRate::cpu.data      0.049424                       # miss rate for demand accesses (Ratio)
system.L2cache.demandMissRate::total         0.049736                       # miss rate for demand accesses (Ratio)
system.L2cache.overallMissRate::cpu.inst            1                       # miss rate for overall accesses (Ratio)
system.L2cache.overallMissRate::cpu.data     0.049424                       # miss rate for overall accesses (Ratio)
system.L2cache.overallMissRate::total        0.049736                       # miss rate for overall accesses (Ratio)
system.L2cache.demandAvgMissLatency::cpu.inst 98074.786325                       # average overall miss latency ((Cycle/Count))
system.L2cache.demandAvgMissLatency::cpu.data 96808.815599                       # average overall miss latency ((Cycle/Count))
system.L2cache.demandAvgMissLatency::total 96817.168072                       # average overall miss latency ((Cycle/Count))
system.L2cache.overallAvgMissLatency::cpu.inst 98074.786325                       # average overall miss latency ((Cycle/Count))
system.L2cache.overallAvgMissLatency::cpu.data 96808.815599                       # average overall miss latency ((Cycle/Count))
system.L2cache.overallAvgMissLatency::total 96817.168072                       # average overall miss latency ((Cycle/Count))
system.L2cache.blockedCycles::no_mshrs              0                       # number of cycles access was blocked (Cycle)
system.L2cache.blockedCycles::no_targets            0                       # number of cycles access was blocked (Cycle)
system.L2cache.blockedCauses::no_mshrs              0                       # number of times access was blocked (Count)
system.L2cache.blockedCauses::no_targets            0                       # number of times access was blocked (Count)
system.L2cache.avgBlocked::no_mshrs               nan                       # average number of cycles each access was blocked ((Cycle/Count))
system.L2cache.avgBlocked::no_targets             nan                       # average number of cycles each access was blocked ((Cycle/Count))
system.L2cache.demandMshrMisses::cpu.inst          468                       # number of demand (read+write) MSHR misses (Count)
system.L2cache.demandMshrMisses::cpu.data        70466                       # number of demand (read+write) MSHR misses (Count)
system.L2cache.demandMshrMisses::total          70934                       # number of demand (read+write) MSHR misses (Count)
system.L2cache.overallMshrMisses::cpu.inst          468                       # number of overall MSHR misses (Count)
system.L2cache.overallMshrMisses::cpu.data        70466                       # number of overall MSHR misses (Count)
system.L2cache.overallMshrMisses::total         70934                       # number of overall MSHR misses (Count)
system.L2cache.demandMshrMissLatency::cpu.inst     36559000                       # number of demand (read+write) MSHR miss ticks (Tick)
system.L2cache.demandMshrMissLatency::cpu.data   5412410000                       # number of demand (read+write) MSHR miss ticks (Tick)
system.L2cache.demandMshrMissLatency::total   5448969000                       # number of demand (read+write) MSHR miss ticks (Tick)
system.L2cache.overallMshrMissLatency::cpu.inst     36559000                       # number of overall MSHR miss ticks (Tick)
system.L2cache.overallMshrMissLatency::cpu.data   5412410000                       # number of overall MSHR miss ticks (Tick)
system.L2cache.overallMshrMissLatency::total   5448969000                       # number of overall MSHR miss ticks (Tick)
system.L2cache.demandMshrMissRate::cpu.inst            1                       # mshr miss ratio for demand accesses (Ratio)
system.L2cache.demandMshrMissRate::cpu.data     0.049424                       # mshr miss ratio for demand accesses (Ratio)
system.L2cache.demandMshrMissRate::total     0.049736                       # mshr miss ratio for demand accesses (Ratio)
system.L2cache.overallMshrMissRate::cpu.inst            1                       # mshr miss ratio for overall accesses (Ratio)
system.L2cache.overallMshrMissRate::cpu.data     0.049424                       # mshr miss ratio for overall accesses (Ratio)
system.L2cache.overallMshrMissRate::total     0.049736                       # mshr miss ratio for overall accesses (Ratio)
system.L2cache.demandAvgMshrMissLatency::cpu.inst 78117.521368                       # average overall mshr miss latency ((Cycle/Count))
system.L2cache.demandAvgMshrMissLatency::cpu.data 76808.815599                       # average overall mshr miss latency ((Cycle/Count))
system.L2cache.demandAvgMshrMissLatency::total 76817.450024                       # average overall mshr miss latency ((Cycle/Count))
system.L2cache.overallAvgMshrMissLatency::cpu.inst 78117.521368                       # average overall mshr miss latency ((Cycle/Count))
system.L2cache.overallAvgMshrMissLatency::cpu.data 76808.815599                       # average overall mshr miss latency ((Cycle/Count))
system.L2cache.overallAvgMshrMissLatency::total 76817.450024                       # average overall mshr miss latency ((Cycle/Count))
system.L2cache.replacements                         0                       # number of replacements (Count)
system.L2cache.ReadExReq.hits::cpu.data             6                       # number of ReadExReq hits (Count)
system.L2cache.ReadExReq.hits::total                6                       # number of ReadExReq hits (Count)
system.L2cache.ReadExReq.misses::cpu.data          121                       # number of ReadExReq misses (Count)
system.L2cache.ReadExReq.misses::total            121                       # number of ReadExReq misses (Count)
system.L2cache.ReadExReq.missLatency::cpu.data     12054000                       # number of ReadExReq miss ticks (Tick)
system.L2cache.ReadExReq.missLatency::total     12054000                       # number of ReadExReq miss ticks (Tick)
system.L2cache.ReadExReq.accesses::cpu.data          127                       # number of ReadExReq accesses(hits+misses) (Count)
system.L2cache.ReadExReq.accesses::total          127                       # number of ReadExReq accesses(hits+misses) (Count)
system.L2cache.ReadExReq.missRate::cpu.data     0.952756                       # miss rate for ReadExReq accesses (Ratio)
system.L2cache.ReadExReq.missRate::total     0.952756                       # miss rate for ReadExReq accesses (Ratio)
system.L2cache.ReadExReq.avgMissLatency::cpu.data 99619.834711                       # average ReadExReq miss latency ((Tick/Count))
system.L2cache.ReadExReq.avgMissLatency::total 99619.834711                       # average ReadExReq miss latency ((Tick/Count))
system.L2cache.ReadExReq.mshrMisses::cpu.data          121                       # number of ReadExReq MSHR misses (Count)
system.L2cache.ReadExReq.mshrMisses::total          121                       # number of ReadExReq MSHR misses (Count)
system.L2cache.ReadExReq.mshrMissLatency::cpu.data      9634000                       # number of ReadExReq MSHR miss ticks (Tick)
system.L2cache.ReadExReq.mshrMissLatency::total      9634000                       # number of ReadExReq MSHR miss ticks (Tick)
system.L2cache.ReadExReq.mshrMissRate::cpu.data     0.952756                       # mshr miss rate for ReadExReq accesses (Ratio)
system.L2cache.ReadExReq.mshrMissRate::total     0.952756                       # mshr miss rate for ReadExReq accesses (Ratio)
system.L2cache.ReadExReq.avgMshrMissLatency::cpu.data 79619.834711                       # average ReadExReq mshr miss latency ((Tick/Count))
system.L2cache.ReadExReq.avgMshrMissLatency::total 79619.834711                       # average ReadExReq mshr miss latency ((Tick/Count))
system.L2cache.ReadSharedReq.hits::cpu.data      1355270                       # number of ReadSharedReq hits (Count)
system.L2cache.ReadSharedReq.hits::total      1355270                       # number of ReadSharedReq hits (Count)
system.L2cache.ReadSharedReq.misses::cpu.inst          468                       # number of ReadSharedReq misses (Count)
system.L2cache.ReadSharedReq.misses::cpu.data        70345                       # number of ReadSharedReq misses (Count)
system.L2cache.ReadSharedReq.misses::total        70813                       # number of ReadSharedReq misses (Count)
system.L2cache.ReadSharedReq.missLatency::cpu.inst     45899000                       # number of ReadSharedReq miss ticks (Tick)
system.L2cache.ReadSharedReq.missLatency::cpu.data   6809676000                       # number of ReadSharedReq miss ticks (Tick)
system.L2cache.ReadSharedReq.missLatency::total   6855575000                       # number of ReadSharedReq miss ticks (Tick)
system.L2cache.ReadSharedReq.accesses::cpu.inst          468                       # number of ReadSharedReq accesses(hits+misses) (Count)
system.L2cache.ReadSharedReq.accesses::cpu.data      1425615                       # number of ReadSharedReq accesses(hits+misses) (Count)
system.L2cache.ReadSharedReq.accesses::total      1426083                       # number of ReadSharedReq accesses(hits+misses) (Count)
system.L2cache.ReadSharedReq.missRate::cpu.inst            1                       # miss rate for ReadSharedReq accesses (Ratio)
system.L2cache.ReadSharedReq.missRate::cpu.data     0.049344                       # miss rate for ReadSharedReq accesses (Ratio)
system.L2cache.ReadSharedReq.missRate::total     0.049656                       # miss rate for ReadSharedReq accesses (Ratio)
system.L2cache.ReadSharedReq.avgMissLatency::cpu.inst 98074.786325                       # average ReadSharedReq miss latency ((Tick/Count))
system.L2cache.ReadSharedReq.avgMissLatency::cpu.data 96803.980382                       # average ReadSharedReq miss latency ((Tick/Count))
system.L2cache.ReadSharedReq.avgMissLatency::total 96812.379083                       # average ReadSharedReq miss latency ((Tick/Count))
system.L2cache.ReadSharedReq.mshrMisses::cpu.inst          468                       # number of ReadSharedReq MSHR misses (Count)
system.L2cache.ReadSharedReq.mshrMisses::cpu.data        70345                       # number of ReadSharedReq MSHR misses (Count)
system.L2cache.ReadSharedReq.mshrMisses::total        70813                       # number of ReadSharedReq MSHR misses (Count)
system.L2cache.ReadSharedReq.mshrMissLatency::cpu.inst     36559000                       # number of ReadSharedReq MSHR miss ticks (Tick)
system.L2cache.ReadSharedReq.mshrMissLatency::cpu.data   5402776000                       # number of ReadSharedReq MSHR miss ticks (Tick)
system.L2cache.ReadSharedReq.mshrMissLatency::total   5439335000                       # number of ReadSharedReq MSHR miss ticks (Tick)
system.L2cache.ReadSharedReq.mshrMissRate::cpu.inst            1                       # mshr miss rate for ReadSharedReq accesses (Ratio)
system.L2cache.ReadSharedReq.mshrMissRate::cpu.data     0.049344                       # mshr miss rate for ReadSharedReq accesses (Ratio)
system.L2cache.ReadSharedReq.mshrMissRate::total     0.049656                       # mshr miss rate for ReadSharedReq accesses (Ratio)
system.L2cache.ReadSharedReq.avgMshrMissLatency::cpu.inst 78117.521368                       # average ReadSharedReq mshr miss latency ((Tick/Count))
system.L2cache.ReadSharedReq.avgMshrMissLatency::cpu.data 76803.980382                       # average ReadSharedReq mshr miss latency ((Tick/Count))
system.L2cache.ReadSharedReq.avgMshrMissLatency::total 76812.661517                       # average ReadSharedReq mshr miss latency ((Tick/Count))
system.L2cache.WritebackDirty.hits::writebacks         1902                       # number of WritebackDirty hits (Count)
system.L2cache.WritebackDirty.hits::total         1902                       # number of WritebackDirty hits (Count)
system.L2cache.WritebackDirty.accesses::writebacks         1902                       # number of WritebackDirty accesses(hits+misses) (Count)
system.L2cache.WritebackDirty.accesses::total         1902                       # number of WritebackDirty accesses(hits+misses) (Count)
system.L2cache.power_state.pwrStateResidencyTicks::UNDEFINED  12668154000                       # Cumulative time (in ticks) in various power states (Tick)
system.L2cache.tags.tagsInUse            55099.341661                       # Average ticks per tags in use ((Tick/Count))
system.L2cache.tags.totalRefs                 2850951                       # Total number of references to valid blocks. (Count)
system.L2cache.tags.sampledRefs                 70933                       # Sample count of references to valid blocks. (Count)
system.L2cache.tags.avgRefs                 40.192167                       # Average number of references to valid blocks. ((Count/Count))
system.L2cache.tags.warmupTick                  86000                       # The tick when the warmup percentage was hit. (Tick)
system.L2cache.tags.occupancies::cpu.inst   427.223534                       # Average occupied blocks per tick, per requestor ((Count/Tick))
system.L2cache.tags.occupancies::cpu.data 54672.118127                       # Average occupied blocks per tick, per requestor ((Count/Tick))
system.L2cache.tags.avgOccs::cpu.inst        0.001630                       # Average percentage of cache occupancy ((Ratio/Tick))
system.L2cache.tags.avgOccs::cpu.data        0.208558                       # Average percentage of cache occupancy ((Ratio/Tick))
system.L2cache.tags.avgOccs::total           0.210187                       # Average percentage of cache occupancy ((Ratio/Tick))
system.L2cache.tags.occupanciesTaskId::1024        70933                       # Occupied blocks per task id (Count)
system.L2cache.tags.ageTaskId_1024::0              56                       # Occupied blocks per task id, per block age (Count)
system.L2cache.tags.ageTaskId_1024::3           37061                       # Occupied blocks per task id, per block age (Count)
system.L2cache.tags.ageTaskId_1024::4           33816                       # Occupied blocks per task id, per block age (Count)
system.L2cache.tags.ratioOccsTaskId::1024     0.270588                       # Ratio of occupied blocks and all blocks, per task id (Ratio)
system.L2cache.tags.tagAccesses              22878549                       # Number of tag accesses (Count)
system.L2cache.tags.dataAccesses             22878549                       # Number of data accesses (Count)
system.L2cache.tags.power_state.pwrStateResidencyTicks::UNDEFINED  12668154000                       # Cumulative time (in ticks) in various power states (Tick)
system.clk_domain.clock                          1000                       # Clock period in ticks (Tick)
system.clk_domain.voltage_domain.voltage            1                       # Voltage in Volts (Volt)
system.cpu.numCycles                         12668155                       # Number of cpu cycles simulated (Cycle)
system.cpu.numWorkItemsStarted                      0                       # Number of work items this cpu started (Count)
system.cpu.numWorkItemsCompleted                    0                       # Number of work items this cpu completed (Count)
system.cpu.instsAdded                        22760770                       # Number of instructions added to the IQ (excludes non-spec) (Count)
system.cpu.nonSpecInstsAdded                        5                       # Number of non-speculative instructions added to the IQ (Count)
system.cpu.instsIssued                       30387683                       # Number of instructions issued (Count)
system.cpu.squashedInstsIssued                  26393                       # Number of squashed instructions issued (Count)
system.cpu.squashedInstsExamined               346918                       # Number of squashed instructions iterated over during squash; mainly for profiling (Count)
system.cpu.squashedOperandsExamined            524050                       # Number of squashed operands that are examined and possibly removed from graph (Count)
system.cpu.squashedNonSpecRemoved                   4                       # Number of squashed non-spec instructions that were removed (Count)
system.cpu.numIssuedDist::samples            12648613                       # Number of insts issued each cycle (Count)
system.cpu.numIssuedDist::mean               2.402452                       # Number of insts issued each cycle (Count)
system.cpu.numIssuedDist::stdev              2.312698                       # Number of insts issued each cycle (Count)
system.cpu.numIssuedDist::underflows                0      0.00%      0.00% # Number of insts issued each cycle (Count)
system.cpu.numIssuedDist::0                   3954858     31.27%     31.27% # Number of insts issued each cycle (Count)
system.cpu.numIssuedDist::1                   2171900     17.17%     48.44% # Number of insts issued each cycle (Count)
system.cpu.numIssuedDist::2                    925100      7.31%     55.75% # Number of insts issued each cycle (Count)
system.cpu.numIssuedDist::3                   1053162      8.33%     64.08% # Number of insts issued each cycle (Count)
system.cpu.numIssuedDist::4                   1912025     15.12%     79.19% # Number of insts issued each cycle (Count)
system.cpu.numIssuedDist::5                   1205949      9.53%     88.73% # Number of insts issued each cycle (Count)
system.cpu.numIssuedDist::6                    737984      5.83%     94.56% # Number of insts issued each cycle (Count)
system.cpu.numIssuedDist::7                    400732      3.17%     97.73% # Number of insts issued each cycle (Count)
system.cpu.numIssuedDist::8                    286903      2.27%    100.00% # Number of insts issued each cycle (Count)
system.cpu.numIssuedDist::overflows                 0      0.00%    100.00% # Number of insts issued each cycle (Count)
system.cpu.numIssuedDist::min_value                 0                       # Number of insts issued each cycle (Count)
system.cpu.numIssuedDist::max_value                 8                       # Number of insts issued each cycle (Count)
system.cpu.numIssuedDist::total              12648613                       # Number of insts issued each cycle (Count)
system.cpu.statFuBusy::No_OpClass                   0      0.00%      0.00% # attempts to use FU when none available (Count)
system.cpu.statFuBusy::IntAlu                   51893      2.00%      2.00% # attempts to use FU when none available (Count)
system.cpu.statFuBusy::IntMult                      0      0.00%      2.00% # attempts to use FU when none available (Count)
system.cpu.statFuBusy::IntDiv                       0      0.00%      2.00% # attempts to use FU when none available (Count)
system.cpu.statFuBusy::FloatAdd                     0      0.00%      2.00% # attempts to use FU when none available (Count)
system.cpu.statFuBusy::FloatCmp                     0      0.00%      2.00% # attempts to use FU when none available (Count)
system.cpu.statFuBusy::FloatCvt                     0      0.00%      2.00% # attempts to use FU when none available (Count)
system.cpu.statFuBusy::FloatMult                    0      0.00%      2.00% # attempts to use FU when none available (Count)
system.cpu.statFuBusy::FloatMultAcc                 0      0.00%      2.00% # attempts to use FU when none available (Count)
system.cpu.statFuBusy::FloatDiv                     0      0.00%      2.00% # attempts to use FU when none available (Count)
system.cpu.statFuBusy::FloatMisc                    0      0.00%      2.00% # attempts to use FU when none available (Count)
system.cpu.statFuBusy::FloatSqrt                    0      0.00%      2.00% # attempts to use FU when none available (Count)
system.cpu.statFuBusy::SimdAdd                      0      0.00%      2.00% # attempts to use FU when none available (Count)
system.cpu.statFuBusy::SimdAddAcc                   0      0.00%      2.00% # attempts to use FU when none available (Count)
system.cpu.statFuBusy::SimdAlu                     11      0.00%      2.00% # attempts to use FU when none available (Count)
system.cpu.statFuBusy::SimdCmp                      0      0.00%      2.00% # attempts to use FU when none available (Count)
system.cpu.statFuBusy::SimdCvt                      3      0.00%      2.00% # attempts to use FU when none available (Count)
system.cpu.statFuBusy::SimdMisc                     3      0.00%      2.00% # attempts to use FU when none available (Count)
system.cpu.statFuBusy::SimdMult                     0      0.00%      2.00% # attempts to use FU when none available (Count)
system.cpu.statFuBusy::SimdMultAcc                  0      0.00%      2.00% # attempts to use FU when none available (Count)
system.cpu.statFuBusy::SimdShift                    0      0.00%      2.00% # attempts to use FU when none available (Count)
system.cpu.statFuBusy::SimdShiftAcc                 0      0.00%      2.00% # attempts to use FU when none available (Count)
system.cpu.statFuBusy::SimdDiv                      0      0.00%      2.00% # attempts to use FU when none available (Count)
system.cpu.statFuBusy::SimdSqrt                     0      0.00%      2.00% # attempts to use FU when none available (Count)
system.cpu.statFuBusy::SimdFloatAdd                 0      0.00%      2.00% # attempts to use FU when none available (Count)
system.cpu.statFuBusy::SimdFloatAlu                 0      0.00%      2.00% # attempts to use FU when none available (Count)
system.cpu.statFuBusy::SimdFloatCmp                 0      0.00%      2.00% # attempts to use FU when none available (Count)
system.cpu.statFuBusy::SimdFloatCvt                 0      0.00%      2.00% # attempts to use FU when none available (Count)
system.cpu.statFuBusy::SimdFloatDiv                 0      0.00%      2.00% # attempts to use FU when none available (Count)
system.cpu.statFuBusy::SimdFloatMisc                0      0.00%      2.00% # attempts to use FU when none available (Count)
system.cpu.statFuBusy::SimdFloatMult              487      0.02%      2.02% # attempts to use FU when none available (Count)
system.cpu.statFuBusy::SimdFloatMultAcc             0      0.00%      2.02% # attempts to use FU when none available (Count)
system.cpu.statFuBusy::SimdFloatSqrt                0      0.00%      2.02% # attempts to use FU when none available (Count)
system.cpu.statFuBusy::SimdReduceAdd                0      0.00%      2.02% # attempts to use FU when none available (Count)
system.cpu.statFuBusy::SimdReduceAlu                0      0.00%      2.02% # attempts to use FU when none available (Count)
system.cpu.statFuBusy::SimdReduceCmp                0      0.00%      2.02% # attempts to use FU when none available (Count)
system.cpu.statFuBusy::SimdFloatReduceAdd            0      0.00%      2.02% # attempts to use FU when none available (Count)
system.cpu.statFuBusy::SimdFloatReduceCmp            0      0.00%      2.02% # attempts to use FU when none available (Count)
system.cpu.statFuBusy::SimdAes                      0      0.00%      2.02% # attempts to use FU when none available (Count)
system.cpu.statFuBusy::SimdAesMix                   0      0.00%      2.02% # attempts to use FU when none available (Count)
system.cpu.statFuBusy::SimdSha1Hash                 0      0.00%      2.02% # attempts to use FU when none available (Count)
system.cpu.statFuBusy::SimdSha1Hash2                0      0.00%      2.02% # attempts to use FU when none available (Count)
system.cpu.statFuBusy::SimdSha256Hash               0      0.00%      2.02% # attempts to use FU when none available (Count)
system.cpu.statFuBusy::SimdSha256Hash2              0      0.00%      2.02% # attempts to use FU when none available (Count)
system.cpu.statFuBusy::SimdShaSigma2                0      0.00%      2.02% # attempts to use FU when none available (Count)
system.cpu.statFuBusy::SimdShaSigma3                0      0.00%      2.02% # attempts to use FU when none available (Count)
system.cpu.statFuBusy::SimdPredAlu                  0      0.00%      2.02% # attempts to use FU when none available (Count)
system.cpu.statFuBusy::MemRead                1123596     43.37%     45.40% # attempts to use FU when none available (Count)
system.cpu.statFuBusy::MemWrite                    18      0.00%     45.40% # attempts to use FU when none available (Count)
system.cpu.statFuBusy::FloatMemRead           1414541     54.60%    100.00% # attempts to use FU when none available (Count)
system.cpu.statFuBusy::FloatMemWrite                9      0.00%    100.00% # attempts to use FU when none available (Count)
system.cpu.statFuBusy::IprAccess                    0      0.00%    100.00% # attempts to use FU when none available (Count)
system.cpu.statFuBusy::InstPrefetch                 0      0.00%    100.00% # attempts to use FU when none available (Count)
system.cpu.statIssuedInstType_0::No_OpClass          640      0.00%      0.00% # Number of instructions issued per FU type, per thread (Count)
system.cpu.statIssuedInstType_0::IntAlu      11455145     37.70%     37.70% # Number of instructions issued per FU type, per thread (Count)
system.cpu.statIssuedInstType_0::IntMult            5      0.00%     37.70% # Number of instructions issued per FU type, per thread (Count)
system.cpu.statIssuedInstType_0::IntDiv            25      0.00%     37.70% # Number of instructions issued per FU type, per thread (Count)
system.cpu.statIssuedInstType_0::FloatAdd      3181636     10.47%     48.17% # Number of instructions issued per FU type, per thread (Count)
system.cpu.statIssuedInstType_0::FloatCmp            0      0.00%     48.17% # Number of instructions issued per FU type, per thread (Count)
system.cpu.statIssuedInstType_0::FloatCvt            0      0.00%     48.17% # Number of instructions issued per FU type, per thread (Count)
system.cpu.statIssuedInstType_0::FloatMult            0      0.00%     48.17% # Number of instructions issued per FU type, per thread (Count)
system.cpu.statIssuedInstType_0::FloatMultAcc            0      0.00%     48.17% # Number of instructions issued per FU type, per thread (Count)
system.cpu.statIssuedInstType_0::FloatDiv            0      0.00%     48.17% # Number of instructions issued per FU type, per thread (Count)
system.cpu.statIssuedInstType_0::FloatMisc            0      0.00%     48.17% # Number of instructions issued per FU type, per thread (Count)
system.cpu.statIssuedInstType_0::FloatSqrt            0      0.00%     48.17% # Number of instructions issued per FU type, per thread (Count)
system.cpu.statIssuedInstType_0::SimdAdd            0      0.00%     48.17% # Number of instructions issued per FU type, per thread (Count)
system.cpu.statIssuedInstType_0::SimdAddAcc            0      0.00%     48.17% # Number of instructions issued per FU type, per thread (Count)
system.cpu.statIssuedInstType_0::SimdAlu          206      0.00%     48.17% # Number of instructions issued per FU type, per thread (Count)
system.cpu.statIssuedInstType_0::SimdCmp            0      0.00%     48.17% # Number of instructions issued per FU type, per thread (Count)
system.cpu.statIssuedInstType_0::SimdCvt           48      0.00%     48.17% # Number of instructions issued per FU type, per thread (Count)
system.cpu.statIssuedInstType_0::SimdMisc          218      0.00%     48.17% # Number of instructions issued per FU type, per thread (Count)
system.cpu.statIssuedInstType_0::SimdMult            0      0.00%     48.17% # Number of instructions issued per FU type, per thread (Count)
system.cpu.statIssuedInstType_0::SimdMultAcc            0      0.00%     48.17% # Number of instructions issued per FU type, per thread (Count)
system.cpu.statIssuedInstType_0::SimdShift            0      0.00%     48.17% # Number of instructions issued per FU type, per thread (Count)
system.cpu.statIssuedInstType_0::SimdShiftAcc            0      0.00%     48.17% # Number of instructions issued per FU type, per thread (Count)
system.cpu.statIssuedInstType_0::SimdDiv            0      0.00%     48.17% # Number of instructions issued per FU type, per thread (Count)
system.cpu.statIssuedInstType_0::SimdSqrt            0      0.00%     48.17% # Number of instructions issued per FU type, per thread (Count)
system.cpu.statIssuedInstType_0::SimdFloatAdd      1587627      5.22%     53.40% # Number of instructions issued per FU type, per thread (Count)
system.cpu.statIssuedInstType_0::SimdFloatAlu            0      0.00%     53.40% # Number of instructions issued per FU type, per thread (Count)
system.cpu.statIssuedInstType_0::SimdFloatCmp            0      0.00%     53.40% # Number of instructions issued per FU type, per thread (Count)
system.cpu.statIssuedInstType_0::SimdFloatCvt            0      0.00%     53.40% # Number of instructions issued per FU type, per thread (Count)
system.cpu.statIssuedInstType_0::SimdFloatDiv            0      0.00%     53.40% # Number of instructions issued per FU type, per thread (Count)
system.cpu.statIssuedInstType_0::SimdFloatMisc            0      0.00%     53.40% # Number of instructions issued per FU type, per thread (Count)
system.cpu.statIssuedInstType_0::SimdFloatMult      1563060      5.14%     58.54% # Number of instructions issued per FU type, per thread (Count)
system.cpu.statIssuedInstType_0::SimdFloatMultAcc            0      0.00%     58.54% # Number of instructions issued per FU type, per thread (Count)
system.cpu.statIssuedInstType_0::SimdFloatSqrt            0      0.00%     58.54% # Number of instructions issued per FU type, per thread (Count)
system.cpu.statIssuedInstType_0::SimdReduceAdd            0      0.00%     58.54% # Number of instructions issued per FU type, per thread (Count)
system.cpu.statIssuedInstType_0::SimdReduceAlu            0      0.00%     58.54% # Number of instructions issued per FU type, per thread (Count)
system.cpu.statIssuedInstType_0::SimdReduceCmp            0      0.00%     58.54% # Number of instructions issued per FU type, per thread (Count)
system.cpu.statIssuedInstType_0::SimdFloatReduceAdd            0      0.00%     58.54% # Number of instructions issued per FU type, per thread (Count)
system.cpu.statIssuedInstType_0::SimdFloatReduceCmp            0      0.00%     58.54% # Number of instructions issued per FU type, per thread (Count)
system.cpu.statIssuedInstType_0::SimdAes            0      0.00%     58.54% # Number of instructions issued per FU type, per thread (Count)
system.cpu.statIssuedInstType_0::SimdAesMix            0      0.00%     58.54% # Number of instructions issued per FU type, per thread (Count)
system.cpu.statIssuedInstType_0::SimdSha1Hash            0      0.00%     58.54% # Number of instructions issued per FU type, per thread (Count)
system.cpu.statIssuedInstType_0::SimdSha1Hash2            0      0.00%     58.54% # Number of instructions issued per FU type, per thread (Count)
system.cpu.statIssuedInstType_0::SimdSha256Hash            0      0.00%     58.54% # Number of instructions issued per FU type, per thread (Count)
system.cpu.statIssuedInstType_0::SimdSha256Hash2            0      0.00%     58.54% # Number of instructions issued per FU type, per thread (Count)
system.cpu.statIssuedInstType_0::SimdShaSigma2            0      0.00%     58.54% # Number of instructions issued per FU type, per thread (Count)
system.cpu.statIssuedInstType_0::SimdShaSigma3            0      0.00%     58.54% # Number of instructions issued per FU type, per thread (Count)
system.cpu.statIssuedInstType_0::SimdPredAlu            0      0.00%     58.54% # Number of instructions issued per FU type, per thread (Count)
system.cpu.statIssuedInstType_0::MemRead      4278201     14.08%     72.62% # Number of instructions issued per FU type, per thread (Count)
system.cpu.statIssuedInstType_0::MemWrite         1769      0.01%     72.62% # Number of instructions issued per FU type, per thread (Count)
system.cpu.statIssuedInstType_0::FloatMemRead      8293975     27.29%     99.92% # Number of instructions issued per FU type, per thread (Count)
system.cpu.statIssuedInstType_0::FloatMemWrite        25128      0.08%    100.00% # Number of instructions issued per FU type, per thread (Count)
system.cpu.statIssuedInstType_0::IprAccess            0      0.00%    100.00% # Number of instructions issued per FU type, per thread (Count)
system.cpu.statIssuedInstType_0::InstPrefetch            0      0.00%    100.00% # Number of instructions issued per FU type, per thread (Count)
system.cpu.statIssuedInstType_0::total       30387683                       # Number of instructions issued per FU type, per thread (Count)
system.cpu.issueRate                         2.398746                       # Inst issue rate ((Count/Cycle))
system.cpu.fuBusy                             2590561                       # FU busy when requested (Count)
system.cpu.fuBusyRate                        0.085250                       # FU busy rate (busy events/executed inst) ((Count/Count))
system.cpu.intInstQueueReads                 45211155                       # Number of integer instruction queue reads (Count)
system.cpu.intInstQueueWrites                13304426                       # Number of integer instruction queue writes (Count)
system.cpu.intInstQueueWakeupAccesses        12998070                       # Number of integer instruction queue wakeup accesses (Count)
system.cpu.fpInstQueueReads                  30829778                       # Number of floating instruction queue reads (Count)
system.cpu.fpInstQueueWrites                  9803287                       # Number of floating instruction queue writes (Count)
system.cpu.fpInstQueueWakeupAccesses          9545773                       # Number of floating instruction queue wakeup accesses (Count)
system.cpu.vecInstQueueReads                        0                       # Number of vector instruction queue reads (Count)
system.cpu.vecInstQueueWrites                       0                       # Number of vector instruction queue writes (Count)
system.cpu.vecInstQueueWakeupAccesses               0                       # Number of vector instruction queue wakeup accesses (Count)
system.cpu.intAluAccesses                    16861175                       # Number of integer alu accesses (Count)
system.cpu.fpAluAccesses                     16116429                       # Number of floating point alu accesses (Count)
system.cpu.vecAluAccesses                           0                       # Number of vector alu accesses (Count)
system.cpu.numInsts                          30338251                       # Number of executed instructions (Count)
system.cpu.numLoadInsts                      12561333                       # Number of load instructions executed (Count)
system.cpu.numSquashedInsts                     49432                       # Number of squashed instructions skipped in execute (Count)
system.cpu.numSwp                                   0                       # Number of swp insts executed (Count)
system.cpu.numNop                                   0                       # Number of nop insts executed (Count)
system.cpu.numRefs                           12588137                       # Number of memory reference insts executed (Count)
system.cpu.numBranches                        1618797                       # Number of branches executed (Count)
system.cpu.numStoreInsts                        26804                       # Number of stores executed (Count)
system.cpu.numRate                           2.394844                       # Inst execution rate ((Count/Cycle))
system.cpu.timesIdled                             289                       # Number of times that the entire CPU went into an idle state and unscheduled itself (Count)
system.cpu.idleCycles                           19542                       # Total number of cycles that the CPU has spent unscheduled due to idling (Cycle)
system.cpu.committedInsts                    11243713                       # Number of Instructions Simulated (Count)
system.cpu.committedOps                      22413851                       # Number of Ops (including micro ops) Simulated (Count)
system.cpu.cpi                               1.126688                       # CPI: Cycles Per Instruction ((Cycle/Count))
system.cpu.totalCpi                          1.126688                       # CPI: Total CPI of All Threads ((Cycle/Count))
system.cpu.ipc                               0.887557                       # IPC: Instructions Per Cycle ((Count/Cycle))
system.cpu.totalIpc                          0.887557                       # IPC: Total IPC of All Threads ((Count/Cycle))
system.cpu.intRegfileReads                   36517599                       # Number of integer regfile reads (Count)
system.cpu.intRegfileWrites                  11353482                       # Number of integer regfile writes (Count)
system.cpu.fpRegfileReads                     9576911                       # Number of floating regfile reads (Count)
system.cpu.fpRegfileWrites                    9521910                       # Number of floating regfile writes (Count)
system.cpu.ccRegfileReads                     8092794                       # number of cc regfile reads (Count)
system.cpu.ccRegfileWrites                    6502384                       # number of cc regfile writes (Count)
system.cpu.miscRegfileReads                  15838067                       # number of misc regfile reads (Count)
system.cpu.miscRegfileWrites                        1                       # number of misc regfile writes (Count)
system.cpu.MemDepUnit__0.insertedLoads        4845356                       # Number of loads inserted to the mem dependence unit. (Count)
system.cpu.MemDepUnit__0.insertedStores         27496                       # Number of stores inserted to the mem dependence unit. (Count)
system.cpu.MemDepUnit__0.conflictingLoads          977                       # Number of conflicting loads. (Count)
system.cpu.MemDepUnit__0.conflictingStores          935                       # Number of conflicting stores. (Count)
system.cpu.MemDepUnit__1.insertedLoads              0                       # Number of loads inserted to the mem dependence unit. (Count)
system.cpu.MemDepUnit__1.insertedStores             0                       # Number of stores inserted to the mem dependence unit. (Count)
system.cpu.MemDepUnit__1.conflictingLoads            0                       # Number of conflicting loads. (Count)
system.cpu.MemDepUnit__1.conflictingStores            0                       # Number of conflicting stores. (Count)
system.cpu.MemDepUnit__2.insertedLoads              0                       # Number of loads inserted to the mem dependence unit. (Count)
system.cpu.MemDepUnit__2.insertedStores             0                       # Number of stores inserted to the mem dependence unit. (Count)
system.cpu.MemDepUnit__2.conflictingLoads            0                       # Number of conflicting loads. (Count)
system.cpu.MemDepUnit__2.conflictingStores            0                       # Number of conflicting stores. (Count)
system.cpu.MemDepUnit__3.insertedLoads              0                       # Number of loads inserted to the mem dependence unit. (Count)
system.cpu.MemDepUnit__3.insertedStores             0                       # Number of stores inserted to the mem dependence unit. (Count)
system.cpu.MemDepUnit__3.conflictingLoads            0                       # Number of conflicting loads. (Count)
system.cpu.MemDepUnit__3.conflictingStores            0                       # Number of conflicting stores. (Count)
system.cpu.branchPred.lookups                 1681863                       # Number of BP lookups (Count)
system.cpu.branchPred.condPredicted           1680608                       # Number of conditional branches predicted (Count)
system.cpu.branchPred.condIncorrect             25465                       # Number of conditional branches incorrect (Count)
system.cpu.branchPred.BTBLookups              1654484                       # Number of BTB lookups (Count)
system.cpu.branchPred.BTBHits                 1653697                       # Number of BTB hits (Count)
system.cpu.branchPred.BTBHitRatio            0.999524                       # BTB Hit Ratio (Ratio)
system.cpu.branchPred.RASUsed                     301                       # Number of times the RAS was used to get a target. (Count)
system.cpu.branchPred.RASIncorrect                  0                       # Number of incorrect RAS predictions. (Count)
system.cpu.branchPred.indirectLookups             301                       # Number of indirect predictor lookups. (Count)
system.cpu.branchPred.indirectHits                 19                       # Number of indirect target hits. (Count)
system.cpu.branchPred.indirectMisses              282                       # Number of indirect misses. (Count)
system.cpu.branchPred.indirectMispredicted           95                       # Number of mispredicted indirect branches. (Count)
system.cpu.commit.commitSquashedInsts          347941                       # The number of squashed insts skipped by commit (Count)
system.cpu.commit.commitNonSpecStalls               1                       # The number of times commit has been forced to stall to communicate backwards (Count)
system.cpu.commit.branchMispredicts             25331                       # The number of times a branch was mispredicted (Count)
system.cpu.commit.numCommittedDist::samples     12591248                       # Number of insts commited each cycle (Count)
system.cpu.commit.numCommittedDist::mean     1.780114                       # Number of insts commited each cycle (Count)
system.cpu.commit.numCommittedDist::stdev     2.887874                       # Number of insts commited each cycle (Count)
system.cpu.commit.numCommittedDist::underflows            0      0.00%      0.00% # Number of insts commited each cycle (Count)
system.cpu.commit.numCommittedDist::0         7997397     63.52%     63.52% # Number of insts commited each cycle (Count)
system.cpu.commit.numCommittedDist::1          441452      3.51%     67.02% # Number of insts commited each cycle (Count)
system.cpu.commit.numCommittedDist::2          653978      5.19%     72.22% # Number of insts commited each cycle (Count)
system.cpu.commit.numCommittedDist::3         1345258     10.68%     82.90% # Number of insts commited each cycle (Count)
system.cpu.commit.numCommittedDist::4           13698      0.11%     83.01% # Number of insts commited each cycle (Count)
system.cpu.commit.numCommittedDist::5          110252      0.88%     83.88% # Number of insts commited each cycle (Count)
system.cpu.commit.numCommittedDist::6           32216      0.26%     84.14% # Number of insts commited each cycle (Count)
system.cpu.commit.numCommittedDist::7          146655      1.16%     85.30% # Number of insts commited each cycle (Count)
system.cpu.commit.numCommittedDist::8         1850342     14.70%    100.00% # Number of insts commited each cycle (Count)
system.cpu.commit.numCommittedDist::overflows            0      0.00%    100.00% # Number of insts commited each cycle (Count)
system.cpu.commit.numCommittedDist::min_value            0                       # Number of insts commited each cycle (Count)
system.cpu.commit.numCommittedDist::max_value            8                       # Number of insts commited each cycle (Count)
system.cpu.commit.numCommittedDist::total     12591248                       # Number of insts commited each cycle (Count)
system.cpu.commit.instsCommitted             11243713                       # Number of instructions committed (Count)
system.cpu.commit.opsCommitted               22413851                       # Number of ops (including micro ops) committed (Count)
system.cpu.commit.memRefs                     4790485                       # Number of memory references committed (Count)
system.cpu.commit.loads                       4764277                       # Number of loads committed (Count)
system.cpu.commit.amos                              0                       # Number of atomic instructions committed (Count)
system.cpu.commit.membars                           0                       # Number of memory barriers committed (Count)
system.cpu.commit.branches                    1613884                       # Number of branches committed (Count)
system.cpu.commit.vectorInstructions                0                       # Number of committed Vector instructions. (Count)
system.cpu.commit.floating                    9502023                       # Number of committed floating point instructions. (Count)
system.cpu.commit.integer                    16063417                       # Number of committed integer instructions. (Count)
system.cpu.commit.functionCalls                   147                       # Number of function calls committed. (Count)
system.cpu.commit.committedInstType_0::No_OpClass          191      0.00%      0.00% # Class of committed instruction (Count)
system.cpu.commit.committedInstType_0::IntAlu     11346081     50.62%     50.62% # Class of committed instruction (Count)
system.cpu.commit.committedInstType_0::IntMult            5      0.00%     50.62% # Class of committed instruction (Count)
system.cpu.commit.committedInstType_0::IntDiv           21      0.00%     50.62% # Class of committed instruction (Count)
system.cpu.commit.committedInstType_0::FloatAdd      3126135     13.95%     64.57% # Class of committed instruction (Count)
system.cpu.commit.committedInstType_0::FloatCmp            0      0.00%     64.57% # Class of committed instruction (Count)
system.cpu.commit.committedInstType_0::FloatCvt            0      0.00%     64.57% # Class of committed instruction (Count)
system.cpu.commit.committedInstType_0::FloatMult            0      0.00%     64.57% # Class of committed instruction (Count)
system.cpu.commit.committedInstType_0::FloatMultAcc            0      0.00%     64.57% # Class of committed instruction (Count)
system.cpu.commit.committedInstType_0::FloatDiv            0      0.00%     64.57% # Class of committed instruction (Count)
system.cpu.commit.committedInstType_0::FloatMisc            0      0.00%     64.57% # Class of committed instruction (Count)
system.cpu.commit.committedInstType_0::FloatSqrt            0      0.00%     64.57% # Class of committed instruction (Count)
system.cpu.commit.committedInstType_0::SimdAdd            0      0.00%     64.57% # Class of committed instruction (Count)
system.cpu.commit.committedInstType_0::SimdAddAcc            0      0.00%     64.57% # Class of committed instruction (Count)
system.cpu.commit.committedInstType_0::SimdAlu           96      0.00%     64.57% # Class of committed instruction (Count)
system.cpu.commit.committedInstType_0::SimdCmp            0      0.00%     64.57% # Class of committed instruction (Count)
system.cpu.commit.committedInstType_0::SimdCvt           46      0.00%     64.57% # Class of committed instruction (Count)
system.cpu.commit.committedInstType_0::SimdMisc          215      0.00%     64.57% # Class of committed instruction (Count)
system.cpu.commit.committedInstType_0::SimdMult            0      0.00%     64.57% # Class of committed instruction (Count)
system.cpu.commit.committedInstType_0::SimdMultAcc            0      0.00%     64.57% # Class of committed instruction (Count)
system.cpu.commit.committedInstType_0::SimdShift            0      0.00%     64.57% # Class of committed instruction (Count)
system.cpu.commit.committedInstType_0::SimdShiftAcc            0      0.00%     64.57% # Class of committed instruction (Count)
system.cpu.commit.committedInstType_0::SimdDiv            0      0.00%     64.57% # Class of committed instruction (Count)
system.cpu.commit.committedInstType_0::SimdSqrt            0      0.00%     64.57% # Class of committed instruction (Count)
system.cpu.commit.committedInstType_0::SimdFloatAdd      1587576      7.08%     71.65% # Class of committed instruction (Count)
system.cpu.commit.committedInstType_0::SimdFloatAlu            0      0.00%     71.65% # Class of committed instruction (Count)
system.cpu.commit.committedInstType_0::SimdFloatCmp            0      0.00%     71.65% # Class of committed instruction (Count)
system.cpu.commit.committedInstType_0::SimdFloatCvt            0      0.00%     71.65% # Class of committed instruction (Count)
system.cpu.commit.committedInstType_0::SimdFloatDiv            0      0.00%     71.65% # Class of committed instruction (Count)
system.cpu.commit.committedInstType_0::SimdFloatMisc            0      0.00%     71.65% # Class of committed instruction (Count)
system.cpu.commit.committedInstType_0::SimdFloatMult      1563000      6.97%     78.63% # Class of committed instruction (Count)
system.cpu.commit.committedInstType_0::SimdFloatMultAcc            0      0.00%     78.63% # Class of committed instruction (Count)
system.cpu.commit.committedInstType_0::SimdFloatSqrt            0      0.00%     78.63% # Class of committed instruction (Count)
system.cpu.commit.committedInstType_0::SimdReduceAdd            0      0.00%     78.63% # Class of committed instruction (Count)
system.cpu.commit.committedInstType_0::SimdReduceAlu            0      0.00%     78.63% # Class of committed instruction (Count)
system.cpu.commit.committedInstType_0::SimdReduceCmp            0      0.00%     78.63% # Class of committed instruction (Count)
system.cpu.commit.committedInstType_0::SimdFloatReduceAdd            0      0.00%     78.63% # Class of committed instruction (Count)
system.cpu.commit.committedInstType_0::SimdFloatReduceCmp            0      0.00%     78.63% # Class of committed instruction (Count)
system.cpu.commit.committedInstType_0::SimdAes            0      0.00%     78.63% # Class of committed instruction (Count)
system.cpu.commit.committedInstType_0::SimdAesMix            0      0.00%     78.63% # Class of committed instruction (Count)
system.cpu.commit.committedInstType_0::SimdSha1Hash            0      0.00%     78.63% # Class of committed instruction (Count)
system.cpu.commit.committedInstType_0::SimdSha1Hash2            0      0.00%     78.63% # Class of committed instruction (Count)
system.cpu.commit.committedInstType_0::SimdSha256Hash            0      0.00%     78.63% # Class of committed instruction (Count)
system.cpu.commit.committedInstType_0::SimdSha256Hash2            0      0.00%     78.63% # Class of committed instruction (Count)
system.cpu.commit.committedInstType_0::SimdShaSigma2            0      0.00%     78.63% # Class of committed instruction (Count)
system.cpu.commit.committedInstType_0::SimdShaSigma3            0      0.00%     78.63% # Class of committed instruction (Count)
system.cpu.commit.committedInstType_0::SimdPredAlu            0      0.00%     78.63% # Class of committed instruction (Count)
system.cpu.commit.committedInstType_0::MemRead      1613647      7.20%     85.83% # Class of committed instruction (Count)
system.cpu.commit.committedInstType_0::MemWrite         1174      0.01%     85.83% # Class of committed instruction (Count)
system.cpu.commit.committedInstType_0::FloatMemRead      3150630     14.06%     99.89% # Class of committed instruction (Count)
system.cpu.commit.committedInstType_0::FloatMemWrite        25034      0.11%    100.00% # Class of committed instruction (Count)
system.cpu.commit.committedInstType_0::IprAccess            0      0.00%    100.00% # Class of committed instruction (Count)
system.cpu.commit.committedInstType_0::InstPrefetch            0      0.00%    100.00% # Class of committed instruction (Count)
system.cpu.commit.committedInstType_0::total     22413851                       # Class of committed instruction (Count)
system.cpu.commit.commitEligibleSamples       1850342                       # number cycles where commit BW limit reached (Cycle)
system.cpu.dcache.demandHits::cpu.data        2638020                       # number of demand (read+write) hits (Count)
system.cpu.dcache.demandHits::total           2638020                       # number of demand (read+write) hits (Count)
system.cpu.dcache.overallHits::cpu.data       2638020                       # number of overall hits (Count)
system.cpu.dcache.overallHits::total          2638020                       # number of overall hits (Count)
system.cpu.dcache.demandMisses::cpu.data      2266365                       # number of demand (read+write) misses (Count)
system.cpu.dcache.demandMisses::total         2266365                       # number of demand (read+write) misses (Count)
system.cpu.dcache.overallMisses::cpu.data      2266365                       # number of overall misses (Count)
system.cpu.dcache.overallMisses::total        2266365                       # number of overall misses (Count)
system.cpu.dcache.demandMissLatency::cpu.data  80310610998                       # number of demand (read+write) miss ticks (Tick)
system.cpu.dcache.demandMissLatency::total  80310610998                       # number of demand (read+write) miss ticks (Tick)
system.cpu.dcache.overallMissLatency::cpu.data  80310610998                       # number of overall miss ticks (Tick)
system.cpu.dcache.overallMissLatency::total  80310610998                       # number of overall miss ticks (Tick)
system.cpu.dcache.demandAccesses::cpu.data      4904385                       # number of demand (read+write) accesses (Count)
system.cpu.dcache.demandAccesses::total       4904385                       # number of demand (read+write) accesses (Count)
system.cpu.dcache.overallAccesses::cpu.data      4904385                       # number of overall (read+write) accesses (Count)
system.cpu.dcache.overallAccesses::total      4904385                       # number of overall (read+write) accesses (Count)
system.cpu.dcache.demandMissRate::cpu.data     0.462110                       # miss rate for demand accesses (Ratio)
system.cpu.dcache.demandMissRate::total      0.462110                       # miss rate for demand accesses (Ratio)
system.cpu.dcache.overallMissRate::cpu.data     0.462110                       # miss rate for overall accesses (Ratio)
system.cpu.dcache.overallMissRate::total     0.462110                       # miss rate for overall accesses (Ratio)
system.cpu.dcache.demandAvgMissLatency::cpu.data 35435.868008                       # average overall miss latency ((Cycle/Count))
system.cpu.dcache.demandAvgMissLatency::total 35435.868008                       # average overall miss latency ((Cycle/Count))
system.cpu.dcache.overallAvgMissLatency::cpu.data 35435.868008                       # average overall miss latency ((Cycle/Count))
system.cpu.dcache.overallAvgMissLatency::total 35435.868008                       # average overall miss latency ((Cycle/Count))
system.cpu.dcache.blockedCycles::no_mshrs      6192941                       # number of cycles access was blocked (Cycle)
system.cpu.dcache.blockedCycles::no_targets            0                       # number of cycles access was blocked (Cycle)
system.cpu.dcache.blockedCauses::no_mshrs      1081275                       # number of times access was blocked (Count)
system.cpu.dcache.blockedCauses::no_targets            0                       # number of times access was blocked (Count)
system.cpu.dcache.avgBlocked::no_mshrs       5.727443                       # average number of cycles each access was blocked ((Cycle/Count))
system.cpu.dcache.avgBlocked::no_targets          nan                       # average number of cycles each access was blocked ((Cycle/Count))
system.cpu.dcache.writebacks::writebacks         1902                       # number of writebacks (Count)
system.cpu.dcache.writebacks::total              1902                       # number of writebacks (Count)
system.cpu.dcache.demandMshrHits::cpu.data       840623                       # number of demand (read+write) MSHR hits (Count)
system.cpu.dcache.demandMshrHits::total        840623                       # number of demand (read+write) MSHR hits (Count)
system.cpu.dcache.overallMshrHits::cpu.data       840623                       # number of overall MSHR hits (Count)
system.cpu.dcache.overallMshrHits::total       840623                       # number of overall MSHR hits (Count)
system.cpu.dcache.demandMshrMisses::cpu.data      1425742                       # number of demand (read+write) MSHR misses (Count)
system.cpu.dcache.demandMshrMisses::total      1425742                       # number of demand (read+write) MSHR misses (Count)
system.cpu.dcache.overallMshrMisses::cpu.data      1425742                       # number of overall MSHR misses (Count)
system.cpu.dcache.overallMshrMisses::total      1425742                       # number of overall MSHR misses (Count)
system.cpu.dcache.demandMshrMissLatency::cpu.data  40370747998                       # number of demand (read+write) MSHR miss ticks (Tick)
system.cpu.dcache.demandMshrMissLatency::total  40370747998                       # number of demand (read+write) MSHR miss ticks (Tick)
system.cpu.dcache.overallMshrMissLatency::cpu.data  40370747998                       # number of overall MSHR miss ticks (Tick)
system.cpu.dcache.overallMshrMissLatency::total  40370747998                       # number of overall MSHR miss ticks (Tick)
system.cpu.dcache.demandMshrMissRate::cpu.data     0.290708                       # mshr miss ratio for demand accesses (Ratio)
system.cpu.dcache.demandMshrMissRate::total     0.290708                       # mshr miss ratio for demand accesses (Ratio)
system.cpu.dcache.overallMshrMissRate::cpu.data     0.290708                       # mshr miss ratio for overall accesses (Ratio)
system.cpu.dcache.overallMshrMissRate::total     0.290708                       # mshr miss ratio for overall accesses (Ratio)
system.cpu.dcache.demandAvgMshrMissLatency::cpu.data 28315.605487                       # average overall mshr miss latency ((Cycle/Count))
system.cpu.dcache.demandAvgMshrMissLatency::total 28315.605487                       # average overall mshr miss latency ((Cycle/Count))
system.cpu.dcache.overallAvgMshrMissLatency::cpu.data 28315.605487                       # average overall mshr miss latency ((Cycle/Count))
system.cpu.dcache.overallAvgMshrMissLatency::total 28315.605487                       # average overall mshr miss latency ((Cycle/Count))
system.cpu.dcache.replacements                1424718                       # number of replacements (Count)
system.cpu.dcache.ReadReq.hits::cpu.data      2611939                       # number of ReadReq hits (Count)
system.cpu.dcache.ReadReq.hits::total         2611939                       # number of ReadReq hits (Count)
system.cpu.dcache.ReadReq.misses::cpu.data      2266237                       # number of ReadReq misses (Count)
system.cpu.dcache.ReadReq.misses::total       2266237                       # number of ReadReq misses (Count)
system.cpu.dcache.ReadReq.missLatency::cpu.data  80297645000                       # number of ReadReq miss ticks (Tick)
system.cpu.dcache.ReadReq.missLatency::total  80297645000                       # number of ReadReq miss ticks (Tick)
system.cpu.dcache.ReadReq.accesses::cpu.data      4878176                       # number of ReadReq accesses(hits+misses) (Count)
system.cpu.dcache.ReadReq.accesses::total      4878176                       # number of ReadReq accesses(hits+misses) (Count)
system.cpu.dcache.ReadReq.missRate::cpu.data     0.464566                       # miss rate for ReadReq accesses (Ratio)
system.cpu.dcache.ReadReq.missRate::total     0.464566                       # miss rate for ReadReq accesses (Ratio)
system.cpu.dcache.ReadReq.avgMissLatency::cpu.data 35432.148094                       # average ReadReq miss latency ((Tick/Count))
system.cpu.dcache.ReadReq.avgMissLatency::total 35432.148094                       # average ReadReq miss latency ((Tick/Count))
system.cpu.dcache.ReadReq.mshrHits::cpu.data       840622                       # number of ReadReq MSHR hits (Count)
system.cpu.dcache.ReadReq.mshrHits::total       840622                       # number of ReadReq MSHR hits (Count)
system.cpu.dcache.ReadReq.mshrMisses::cpu.data      1425615                       # number of ReadReq MSHR misses (Count)
system.cpu.dcache.ReadReq.mshrMisses::total      1425615                       # number of ReadReq MSHR misses (Count)
system.cpu.dcache.ReadReq.mshrMissLatency::cpu.data  40358113000                       # number of ReadReq MSHR miss ticks (Tick)
system.cpu.dcache.ReadReq.mshrMissLatency::total  40358113000                       # number of ReadReq MSHR miss ticks (Tick)
system.cpu.dcache.ReadReq.mshrMissRate::cpu.data     0.292243                       # mshr miss rate for ReadReq accesses (Ratio)
system.cpu.dcache.ReadReq.mshrMissRate::total     0.292243                       # mshr miss rate for ReadReq accesses (Ratio)
system.cpu.dcache.ReadReq.avgMshrMissLatency::cpu.data 28309.265124                       # average ReadReq mshr miss latency ((Tick/Count))
system.cpu.dcache.ReadReq.avgMshrMissLatency::total 28309.265124                       # average ReadReq mshr miss latency ((Tick/Count))
system.cpu.dcache.WriteReq.hits::cpu.data        26081                       # number of WriteReq hits (Count)
system.cpu.dcache.WriteReq.hits::total          26081                       # number of WriteReq hits (Count)
system.cpu.dcache.WriteReq.misses::cpu.data          128                       # number of WriteReq misses (Count)
system.cpu.dcache.WriteReq.misses::total          128                       # number of WriteReq misses (Count)
system.cpu.dcache.WriteReq.missLatency::cpu.data     12965998                       # number of WriteReq miss ticks (Tick)
system.cpu.dcache.WriteReq.missLatency::total     12965998                       # number of WriteReq miss ticks (Tick)
system.cpu.dcache.WriteReq.accesses::cpu.data        26209                       # number of WriteReq accesses(hits+misses) (Count)
system.cpu.dcache.WriteReq.accesses::total        26209                       # number of WriteReq accesses(hits+misses) (Count)
system.cpu.dcache.WriteReq.missRate::cpu.data     0.004884                       # miss rate for WriteReq accesses (Ratio)
system.cpu.dcache.WriteReq.missRate::total     0.004884                       # miss rate for WriteReq accesses (Ratio)
system.cpu.dcache.WriteReq.avgMissLatency::cpu.data 101296.859375                       # average WriteReq miss latency ((Tick/Count))
system.cpu.dcache.WriteReq.avgMissLatency::total 101296.859375                       # average WriteReq miss latency ((Tick/Count))
system.cpu.dcache.WriteReq.mshrHits::cpu.data            1                       # number of WriteReq MSHR hits (Count)
system.cpu.dcache.WriteReq.mshrHits::total            1                       # number of WriteReq MSHR hits (Count)
system.cpu.dcache.WriteReq.mshrMisses::cpu.data          127                       # number of WriteReq MSHR misses (Count)
system.cpu.dcache.WriteReq.mshrMisses::total          127                       # number of WriteReq MSHR misses (Count)
system.cpu.dcache.WriteReq.mshrMissLatency::cpu.data     12634998                       # number of WriteReq MSHR miss ticks (Tick)
system.cpu.dcache.WriteReq.mshrMissLatency::total     12634998                       # number of WriteReq MSHR miss ticks (Tick)
system.cpu.dcache.WriteReq.mshrMissRate::cpu.data     0.004846                       # mshr miss rate for WriteReq accesses (Ratio)
system.cpu.dcache.WriteReq.mshrMissRate::total     0.004846                       # mshr miss rate for WriteReq accesses (Ratio)
system.cpu.dcache.WriteReq.avgMshrMissLatency::cpu.data 99488.173228                       # average WriteReq mshr miss latency ((Tick/Count))
system.cpu.dcache.WriteReq.avgMshrMissLatency::total 99488.173228                       # average WriteReq mshr miss latency ((Tick/Count))
system.cpu.dcache.power_state.pwrStateResidencyTicks::UNDEFINED  12668154000                       # Cumulative time (in ticks) in various power states (Tick)
system.cpu.dcache.tags.tagsInUse          1019.575937                       # Average ticks per tags in use ((Tick/Count))
system.cpu.dcache.tags.totalRefs              4063762                       # Total number of references to valid blocks. (Count)
system.cpu.dcache.tags.sampledRefs            1425742                       # Sample count of references to valid blocks. (Count)
system.cpu.dcache.tags.avgRefs               2.850279                       # Average number of references to valid blocks. ((Count/Count))
system.cpu.dcache.tags.warmupTick              222000                       # The tick when the warmup percentage was hit. (Tick)
system.cpu.dcache.tags.occupancies::cpu.data  1019.575937                       # Average occupied blocks per tick, per requestor ((Count/Tick))
system.cpu.dcache.tags.avgOccs::cpu.data     0.995680                       # Average percentage of cache occupancy ((Ratio/Tick))
system.cpu.dcache.tags.avgOccs::total        0.995680                       # Average percentage of cache occupancy ((Ratio/Tick))
system.cpu.dcache.tags.occupanciesTaskId::1024         1024                       # Occupied blocks per task id (Count)
system.cpu.dcache.tags.ageTaskId_1024::0          695                       # Occupied blocks per task id, per block age (Count)
system.cpu.dcache.tags.ageTaskId_1024::1          329                       # Occupied blocks per task id, per block age (Count)
system.cpu.dcache.tags.ratioOccsTaskId::1024            1                       # Ratio of occupied blocks and all blocks, per task id (Ratio)
system.cpu.dcache.tags.tagAccesses           11234512                       # Number of tag accesses (Count)
system.cpu.dcache.tags.dataAccesses          11234512                       # Number of data accesses (Count)
system.cpu.dcache.tags.power_state.pwrStateResidencyTicks::UNDEFINED  12668154000                       # Cumulative time (in ticks) in various power states (Tick)
system.cpu.decode.idleCycles                  1270975                       # Number of cycles decode is idle (Cycle)
system.cpu.decode.blockedCycles               7847248                       # Number of cycles decode is blocked (Cycle)
system.cpu.decode.runCycles                   2380060                       # Number of cycles decode is running (Cycle)
system.cpu.decode.unblockCycles               1124962                       # Number of cycles decode is unblocking (Cycle)
system.cpu.decode.squashCycles                  25368                       # Number of cycles decode is squashing (Cycle)
system.cpu.decode.branchResolved              1621529                       # Number of times decode resolved a branch (Count)
system.cpu.decode.branchMispred                   226                       # Number of times decode detected a branch misprediction (Count)
system.cpu.decode.decodedInsts               23031554                       # Number of instructions handled by decode (Count)
system.cpu.decode.squashedInsts                  1012                       # Number of squashed instructions handled by decode (Count)
system.cpu.fetch.icacheStallCycles            3328419                       # Number of cycles fetch is stalled on an Icache miss (Cycle)
system.cpu.fetch.insts                       11769466                       # Number of instructions fetch has processed (Count)
system.cpu.fetch.branches                     1681863                       # Number of branches that fetch encountered (Count)
system.cpu.fetch.predictedBranches            1654017                       # Number of branches that fetch has predicted taken (Count)
system.cpu.fetch.cycles                       9293862                       # Number of cycles fetch has run and was not squashing or blocked (Cycle)
system.cpu.fetch.squashCycles                   51178                       # Number of cycles fetch has spent squashing (Cycle)
system.cpu.fetch.miscStallCycles                  101                       # Number of cycles fetch has spent waiting on interrupts, or bad addresses, or out of MSHRs (Cycle)
system.cpu.fetch.pendingTrapStallCycles           575                       # Number of stall cycles due to pending traps (Cycle)
system.cpu.fetch.pendingQuiesceStallCycles            2                       # Number of stall cycles due to pending quiesce instructions (Cycle)
system.cpu.fetch.icacheWaitRetryStallCycles           65                       # Number of stall cycles due to full MSHR (Cycle)
system.cpu.fetch.cacheLines                   3311964                       # Number of cache lines fetched (Count)
system.cpu.fetch.icacheSquashes                  9369                       # Number of outstanding Icache misses that were squashed (Count)
system.cpu.fetch.nisnDist::samples           12648613                       # Number of instructions fetched each cycle (Total) (Count)
system.cpu.fetch.nisnDist::mean              1.855461                       # Number of instructions fetched each cycle (Total) (Count)
system.cpu.fetch.nisnDist::stdev             2.856771                       # Number of instructions fetched each cycle (Total) (Count)
system.cpu.fetch.nisnDist::underflows               0      0.00%      0.00% # Number of instructions fetched each cycle (Total) (Count)
system.cpu.fetch.nisnDist::0                  7542347     59.63%     59.63% # Number of instructions fetched each cycle (Total) (Count)
system.cpu.fetch.nisnDist::1                  1529659     12.09%     71.72% # Number of instructions fetched each cycle (Total) (Count)
system.cpu.fetch.nisnDist::2                    84294      0.67%     72.39% # Number of instructions fetched each cycle (Total) (Count)
system.cpu.fetch.nisnDist::3                   118025      0.93%     73.32% # Number of instructions fetched each cycle (Total) (Count)
system.cpu.fetch.nisnDist::4                   164427      1.30%     74.62% # Number of instructions fetched each cycle (Total) (Count)
system.cpu.fetch.nisnDist::5                  1577768     12.47%     87.10% # Number of instructions fetched each cycle (Total) (Count)
system.cpu.fetch.nisnDist::6                    56974      0.45%     87.55% # Number of instructions fetched each cycle (Total) (Count)
system.cpu.fetch.nisnDist::7                    72655      0.57%     88.12% # Number of instructions fetched each cycle (Total) (Count)
system.cpu.fetch.nisnDist::8                  1502464     11.88%    100.00% # Number of instructions fetched each cycle (Total) (Count)
system.cpu.fetch.nisnDist::overflows                0      0.00%    100.00% # Number of instructions fetched each cycle (Total) (Count)
system.cpu.fetch.nisnDist::min_value                0                       # Number of instructions fetched each cycle (Total) (Count)
system.cpu.fetch.nisnDist::max_value                8                       # Number of instructions fetched each cycle (Total) (Count)
system.cpu.fetch.nisnDist::total             12648613                       # Number of instructions fetched each cycle (Total) (Count)
system.cpu.fetch.branchRate                  0.132763                       # Number of branch fetches per cycle (Ratio)
system.cpu.fetch.rate                        0.929059                       # Number of inst fetches per cycle ((Count/Cycle))
system.cpu.icache.demandHits::cpu.inst        3311353                       # number of demand (read+write) hits (Count)
system.cpu.icache.demandHits::total           3311353                       # number of demand (read+write) hits (Count)
system.cpu.icache.overallHits::cpu.inst       3311353                       # number of overall hits (Count)
system.cpu.icache.overallHits::total          3311353                       # number of overall hits (Count)
system.cpu.icache.demandMisses::cpu.inst          611                       # number of demand (read+write) misses (Count)
system.cpu.icache.demandMisses::total             611                       # number of demand (read+write) misses (Count)
system.cpu.icache.overallMisses::cpu.inst          611                       # number of overall misses (Count)
system.cpu.icache.overallMisses::total            611                       # number of overall misses (Count)
system.cpu.icache.demandMissLatency::cpu.inst     58232998                       # number of demand (read+write) miss ticks (Tick)
system.cpu.icache.demandMissLatency::total     58232998                       # number of demand (read+write) miss ticks (Tick)
system.cpu.icache.overallMissLatency::cpu.inst     58232998                       # number of overall miss ticks (Tick)
system.cpu.icache.overallMissLatency::total     58232998                       # number of overall miss ticks (Tick)
system.cpu.icache.demandAccesses::cpu.inst      3311964                       # number of demand (read+write) accesses (Count)
system.cpu.icache.demandAccesses::total       3311964                       # number of demand (read+write) accesses (Count)
system.cpu.icache.overallAccesses::cpu.inst      3311964                       # number of overall (read+write) accesses (Count)
system.cpu.icache.overallAccesses::total      3311964                       # number of overall (read+write) accesses (Count)
system.cpu.icache.demandMissRate::cpu.inst     0.000184                       # miss rate for demand accesses (Ratio)
system.cpu.icache.demandMissRate::total      0.000184                       # miss rate for demand accesses (Ratio)
system.cpu.icache.overallMissRate::cpu.inst     0.000184                       # miss rate for overall accesses (Ratio)
system.cpu.icache.overallMissRate::total     0.000184                       # miss rate for overall accesses (Ratio)
system.cpu.icache.demandAvgMissLatency::cpu.inst 95307.689034                       # average overall miss latency ((Cycle/Count))
system.cpu.icache.demandAvgMissLatency::total 95307.689034                       # average overall miss latency ((Cycle/Count))
system.cpu.icache.overallAvgMissLatency::cpu.inst 95307.689034                       # average overall miss latency ((Cycle/Count))
system.cpu.icache.overallAvgMissLatency::total 95307.689034                       # average overall miss latency ((Cycle/Count))
system.cpu.icache.blockedCycles::no_mshrs          265                       # number of cycles access was blocked (Cycle)
system.cpu.icache.blockedCycles::no_targets            0                       # number of cycles access was blocked (Cycle)
system.cpu.icache.blockedCauses::no_mshrs            6                       # number of times access was blocked (Count)
system.cpu.icache.blockedCauses::no_targets            0                       # number of times access was blocked (Count)
system.cpu.icache.avgBlocked::no_mshrs      44.166667                       # average number of cycles each access was blocked ((Cycle/Count))
system.cpu.icache.avgBlocked::no_targets          nan                       # average number of cycles each access was blocked ((Cycle/Count))
system.cpu.icache.demandMshrHits::cpu.inst          143                       # number of demand (read+write) MSHR hits (Count)
system.cpu.icache.demandMshrHits::total           143                       # number of demand (read+write) MSHR hits (Count)
system.cpu.icache.overallMshrHits::cpu.inst          143                       # number of overall MSHR hits (Count)
system.cpu.icache.overallMshrHits::total          143                       # number of overall MSHR hits (Count)
[...]
system.mem_ctrl.requestorReadAvgLat::cpu.inst     26951.82                       # Per-requestor read average memory access latency ((Tick/Count))
system.mem_ctrl.requestorReadAvgLat::cpu.data     25519.19                       # Per-requestor read average memory access latency ((Tick/Count))
system.mem_ctrl.dram.bytesRead::cpu.inst        29888                       # Number of bytes read from this memory (Byte)
system.mem_ctrl.dram.bytesRead::cpu.data      4509824                       # Number of bytes read from this memory (Byte)
system.mem_ctrl.dram.bytesRead::total         4539712                       # Number of bytes read from this memory (Byte)
system.mem_ctrl.dram.bytesInstRead::cpu.inst        29888                       # Number of instructions bytes read from this memory (Byte)
system.mem_ctrl.dram.bytesInstRead::total        29888                       # Number of instructions bytes read from this memory (Byte)
system.mem_ctrl.dram.numReads::cpu.inst           467                       # Number of read requests responded to by this memory (Count)
system.mem_ctrl.dram.numReads::cpu.data         70466                       # Number of read requests responded to by this memory (Count)
system.mem_ctrl.dram.numReads::total            70933                       # Number of read requests responded to by this memory (Count)
system.mem_ctrl.dram.bwRead::cpu.inst         2359302                       # Total read bandwidth from this memory ((Byte/Second))
system.mem_ctrl.dram.bwRead::cpu.data       355996935                       # Total read bandwidth from this memory ((Byte/Second))
system.mem_ctrl.dram.bwRead::total          358356237                       # Total read bandwidth from this memory ((Byte/Second))
system.mem_ctrl.dram.bwInstRead::cpu.inst      2359302                       # Instruction read bandwidth from this memory ((Byte/Second))
system.mem_ctrl.dram.bwInstRead::total        2359302                       # Instruction read bandwidth from this memory ((Byte/Second))
system.mem_ctrl.dram.bwTotal::cpu.inst        2359302                       # Total bandwidth to/from this memory ((Byte/Second))
system.mem_ctrl.dram.bwTotal::cpu.data      355996935                       # Total bandwidth to/from this memory ((Byte/Second))
system.mem_ctrl.dram.bwTotal::total         358356237                       # Total bandwidth to/from this memory ((Byte/Second))
system.mem_ctrl.dram.readBursts                 70933                       # Number of DRAM read bursts (Count)
system.mem_ctrl.dram.writeBursts                    0                       # Number of DRAM write bursts (Count)
system.mem_ctrl.dram.perBankRdBursts::0          4520                       # Per bank write bursts (Count)
system.mem_ctrl.dram.perBankRdBursts::1          4428                       # Per bank write bursts (Count)
system.mem_ctrl.dram.perBankRdBursts::2          4433                       # Per bank write bursts (Count)
system.mem_ctrl.dram.perBankRdBursts::3          4365                       # Per bank write bursts (Count)
system.mem_ctrl.dram.perBankRdBursts::4          4463                       # Per bank write bursts (Count)
system.mem_ctrl.dram.perBankRdBursts::5          4495                       # Per bank write bursts (Count)
system.mem_ctrl.dram.perBankRdBursts::6          4552                       # Per bank write bursts (Count)
system.mem_ctrl.dram.perBankRdBursts::7          4516                       # Per bank write bursts (Count)
system.mem_ctrl.dram.perBankRdBursts::8          4380                       # Per bank write bursts (Count)
system.mem_ctrl.dram.perBankRdBursts::9          4365                       # Per bank write bursts (Count)
system.mem_ctrl.dram.perBankRdBursts::10         4361                       # Per bank write bursts (Count)
system.mem_ctrl.dram.perBankRdBursts::11         4388                       # Per bank write bursts (Count)
system.mem_ctrl.dram.perBankRdBursts::12         4402                       # Per bank write bursts (Count)
system.mem_ctrl.dram.perBankRdBursts::13         4372                       # Per bank write bursts (Count)
system.mem_ctrl.dram.perBankRdBursts::14         4423                       # Per bank write bursts (Count)
system.mem_ctrl.dram.perBankRdBursts::15         4470                       # Per bank write bursts (Count)
system.mem_ctrl.dram.perBankWrBursts::0             0                       # Per bank write bursts (Count)
system.mem_ctrl.dram.perBankWrBursts::1             0                       # Per bank write bursts (Count)
system.mem_ctrl.dram.perBankWrBursts::2             0                       # Per bank write bursts (Count)
system.mem_ctrl.dram.perBankWrBursts::3             0                       # Per bank write bursts (Count)
system.mem_ctrl.dram.perBankWrBursts::4             0                       # Per bank write bursts (Count)
system.mem_ctrl.dram.perBankWrBursts::5             0                       # Per bank write bursts (Count)
system.mem_ctrl.dram.perBankWrBursts::6             0                       # Per bank write bursts (Count)
system.mem_ctrl.dram.perBankWrBursts::7             0                       # Per bank write bursts (Count)
system.mem_ctrl.dram.perBankWrBursts::8             0                       # Per bank write bursts (Count)
system.mem_ctrl.dram.perBankWrBursts::9             0                       # Per bank write bursts (Count)
system.mem_ctrl.dram.perBankWrBursts::10            0                       # Per bank write bursts (Count)
system.mem_ctrl.dram.perBankWrBursts::11            0                       # Per bank write bursts (Count)
system.mem_ctrl.dram.perBankWrBursts::12            0                       # Per bank write bursts (Count)
system.mem_ctrl.dram.perBankWrBursts::13            0                       # Per bank write bursts (Count)
system.mem_ctrl.dram.perBankWrBursts::14            0                       # Per bank write bursts (Count)
system.mem_ctrl.dram.perBankWrBursts::15            0                       # Per bank write bursts (Count)
system.mem_ctrl.dram.totQLat                480828000                       # Total ticks spent queuing (Tick)
system.mem_ctrl.dram.totBusLat              354665000                       # Total ticks spent in databus transfers (Tick)
system.mem_ctrl.dram.totMemAccLat          1810821750                       # Total ticks spent from burst creation until serviced by the DRAM (Tick)
system.mem_ctrl.dram.avgQLat                  6778.62                       # Average queueing delay per DRAM burst ((Tick/Count))
system.mem_ctrl.dram.avgBusLat                5000.00                       # Average bus latency per DRAM burst ((Tick/Count))
system.mem_ctrl.dram.avgMemAccLat            25528.62                       # Average memory access latency per DRAM burst ((Tick/Count))
system.mem_ctrl.dram.readRowHits                62436                       # Number of row buffer hits during reads (Count)
system.mem_ctrl.dram.writeRowHits                   0                       # Number of row buffer hits during writes (Count)
system.mem_ctrl.dram.readRowHitRate             88.02                       # Row buffer hit rate for reads (Ratio)
system.mem_ctrl.dram.writeRowHitRate              nan                       # Row buffer hit rate for writes (Ratio)
system.mem_ctrl.dram.bytesPerActivate::samples         8488                       # Bytes accessed per row activation (Byte)
system.mem_ctrl.dram.bytesPerActivate::mean   534.559849                       # Bytes accessed per row activation (Byte)
system.mem_ctrl.dram.bytesPerActivate::gmean   314.643024                       # Bytes accessed per row activation (Byte)
system.mem_ctrl.dram.bytesPerActivate::stdev   417.334103                       # Bytes accessed per row activation (Byte)
system.mem_ctrl.dram.bytesPerActivate::0-127         2335     27.51%     27.51% # Bytes accessed per row activation (Byte)
system.mem_ctrl.dram.bytesPerActivate::128-255         1178     13.88%     41.39% # Bytes accessed per row activation (Byte)
system.mem_ctrl.dram.bytesPerActivate::256-383          451      5.31%     46.70% # Bytes accessed per row activation (Byte)
system.mem_ctrl.dram.bytesPerActivate::384-511          222      2.62%     49.32% # Bytes accessed per row activation (Byte)
system.mem_ctrl.dram.bytesPerActivate::512-639          193      2.27%     51.59% # Bytes accessed per row activation (Byte)
system.mem_ctrl.dram.bytesPerActivate::640-767          272      3.20%     54.80% # Bytes accessed per row activation (Byte)
system.mem_ctrl.dram.bytesPerActivate::768-895          902     10.63%     65.42% # Bytes accessed per row activation (Byte)
system.mem_ctrl.dram.bytesPerActivate::896-1023          125      1.47%     66.89% # Bytes accessed per row activation (Byte)
system.mem_ctrl.dram.bytesPerActivate::1024-1151         2810     33.11%    100.00% # Bytes accessed per row activation (Byte)
system.mem_ctrl.dram.bytesPerActivate::total         8488                       # Bytes accessed per row activation (Byte)
system.mem_ctrl.dram.bytesRead                4539712                       # Total bytes read (Byte)
system.mem_ctrl.dram.bytesWritten                   0                       # Total bytes written (Byte)
system.mem_ctrl.dram.avgRdBW               358.356237                       # Average DRAM read bandwidth in MiBytes/s ((Byte/Second))
system.mem_ctrl.dram.avgWrBW                        0                       # Average DRAM write bandwidth in MiBytes/s ((Byte/Second))
system.mem_ctrl.dram.peakBW                  12800.00                       # Theoretical peak bandwidth in MiByte/s ((Byte/Second))
system.mem_ctrl.dram.busUtil                     2.80                       # Data bus utilization in percentage (Ratio)
system.mem_ctrl.dram.busUtilRead                 2.80                       # Data bus utilization in percentage for reads (Ratio)
system.mem_ctrl.dram.busUtilWrite                0.00                       # Data bus utilization in percentage for writes (Ratio)
system.mem_ctrl.dram.pageHitRate                88.02                       # Row buffer hit rate, read and write combined (Ratio)
system.mem_ctrl.dram.power_state.pwrStateResidencyTicks::UNDEFINED  12668154000                       # Cumulative time (in ticks) in various power states (Tick)
system.mem_ctrl.dram.rank0.actEnergy         34571880                       # Energy for activate commands per rank (pJ) (Joule)
system.mem_ctrl.dram.rank0.preEnergy         18356415                       # Energy for precharge commands per rank (pJ) (Joule)
system.mem_ctrl.dram.rank0.readEnergy       255412080                       # Energy for read commands per rank (pJ) (Joule)
system.mem_ctrl.dram.rank0.writeEnergy              0                       # Energy for write commands per rank (pJ) (Joule)
system.mem_ctrl.dram.rank0.refreshEnergy 999404640.000000                       # Energy for refresh commands per rank (pJ) (Joule)
system.mem_ctrl.dram.rank0.actBackEnergy   2251726860                       # Energy for active background per rank (pJ) (Joule)
system.mem_ctrl.dram.rank0.preBackEnergy   2968380480                       # Energy for precharge background per rank (pJ) (Joule)
system.mem_ctrl.dram.rank0.actPowerDownEnergy            0                       # Energy for active power-down per rank (pJ) (Joule)
system.mem_ctrl.dram.rank0.prePowerDownEnergy            0                       # Energy for precharge power-down per rank (pJ) (Joule)
system.mem_ctrl.dram.rank0.selfRefreshEnergy            0                       # Energy for self refresh per rank (pJ) (Joule)
system.mem_ctrl.dram.rank0.totalEnergy     6527852355                       # Total energy per rank (pJ) (Joule)
system.mem_ctrl.dram.rank0.averagePower    515.296258                       # Core power per rank (mW) (Watt)
system.mem_ctrl.dram.rank0.totalIdleTime            0                       # Total Idle time Per DRAM Rank (Tick)
system.mem_ctrl.dram.rank0.pwrStateTime::IDLE   7693442000                       # Time in different power states (Tick)
system.mem_ctrl.dram.rank0.pwrStateTime::REF    422760000                       # Time in different power states (Tick)
system.mem_ctrl.dram.rank0.pwrStateTime::SREF            0                       # Time in different power states (Tick)
system.mem_ctrl.dram.rank0.pwrStateTime::PRE_PDN            0                       # Time in different power states (Tick)
system.mem_ctrl.dram.rank0.pwrStateTime::ACT   4551952000                       # Time in different power states (Tick)
system.mem_ctrl.dram.rank0.pwrStateTime::ACT_PDN            0                       # Time in different power states (Tick)
system.mem_ctrl.dram.rank1.actEnergy         26096700                       # Energy for activate commands per rank (pJ) (Joule)
system.mem_ctrl.dram.rank1.preEnergy         13855545                       # Energy for precharge commands per rank (pJ) (Joule)
system.mem_ctrl.dram.rank1.readEnergy       251049540                       # Energy for read commands per rank (pJ) (Joule)
system.mem_ctrl.dram.rank1.writeEnergy              0                       # Energy for write commands per rank (pJ) (Joule)
system.mem_ctrl.dram.rank1.refreshEnergy 999404640.000000                       # Energy for refresh commands per rank (pJ) (Joule)
system.mem_ctrl.dram.rank1.actBackEnergy   1830708330                       # Energy for active background per rank (pJ) (Joule)
system.mem_ctrl.dram.rank1.preBackEnergy   3322922400                       # Energy for precharge background per rank (pJ) (Joule)
system.mem_ctrl.dram.rank1.actPowerDownEnergy            0                       # Energy for active power-down per rank (pJ) (Joule)
system.mem_ctrl.dram.rank1.prePowerDownEnergy            0                       # Energy for precharge power-down per rank (pJ) (Joule)
system.mem_ctrl.dram.rank1.selfRefreshEnergy            0                       # Energy for self refresh per rank (pJ) (Joule)
system.mem_ctrl.dram.rank1.totalEnergy     6444037155                       # Total energy per rank (pJ) (Joule)
system.mem_ctrl.dram.rank1.averagePower    508.680046                       # Core power per rank (mW) (Watt)
system.mem_ctrl.dram.rank1.totalIdleTime            0                       # Total Idle time Per DRAM Rank (Tick)
system.mem_ctrl.dram.rank1.pwrStateTime::IDLE   8616036750                       # Time in different power states (Tick)
system.mem_ctrl.dram.rank1.pwrStateTime::REF    422760000                       # Time in different power states (Tick)
system.mem_ctrl.dram.rank1.pwrStateTime::SREF            0                       # Time in different power states (Tick)
system.mem_ctrl.dram.rank1.pwrStateTime::PRE_PDN            0                       # Time in different power states (Tick)
system.mem_ctrl.dram.rank1.pwrStateTime::ACT   3629357250                       # Time in different power states (Tick)
system.mem_ctrl.dram.rank1.pwrStateTime::ACT_PDN            0                       # Time in different power states (Tick)
system.mem_ctrl.power_state.pwrStateResidencyTicks::UNDEFINED  12668154000                       # Cumulative time (in ticks) in various power states (Tick)
system.membus.transDist::ReadResp               70812                       # Transaction distribution (Count)
system.membus.transDist::ReadExReq                121                       # Transaction distribution (Count)
system.membus.transDist::ReadExResp               121                       # Transaction distribution (Count)
system.membus.transDist::ReadSharedReq          70812                       # Transaction distribution (Count)
system.membus.pktCount_system.L2cache.mem_side_port::system.mem_ctrl.port       141866                       # Packet count per connected requestor and responder (Count)
system.membus.pktCount_system.L2cache.mem_side_port::total       141866                       # Packet count per connected requestor and responder (Count)
system.membus.pktCount::total                  141866                       # Packet count per connected requestor and responder (Count)
system.membus.pktSize_system.L2cache.mem_side_port::system.mem_ctrl.port      4539712                       # Cumulative packet size per connected requestor and responder (Byte)
system.membus.pktSize_system.L2cache.mem_side_port::total      4539712                       # Cumulative packet size per connected requestor and responder (Byte)
system.membus.pktSize::total                  4539712                       # Cumulative packet size per connected requestor and responder (Byte)
system.membus.snoops                                0                       # Total snoops (Count)
system.membus.snoopTraffic                          0                       # Total snoop traffic (Byte)
system.membus.snoopFanout::samples              70933                       # Request fanout histogram (Count)
system.membus.snoopFanout::mean                     0                       # Request fanout histogram (Count)
system.membus.snoopFanout::stdev                    0                       # Request fanout histogram (Count)
system.membus.snoopFanout::underflows               0      0.00%      0.00% # Request fanout histogram (Count)
system.membus.snoopFanout::0                    70933    100.00%    100.00% # Request fanout histogram (Count)
system.membus.snoopFanout::1                        0      0.00%    100.00% # Request fanout histogram (Count)
system.membus.snoopFanout::overflows                0      0.00%    100.00% # Request fanout histogram (Count)
system.membus.snoopFanout::min_value                0                       # Request fanout histogram (Count)
system.membus.snoopFanout::max_value                0                       # Request fanout histogram (Count)
system.membus.snoopFanout::total                70933                       # Request fanout histogram (Count)
system.membus.power_state.pwrStateResidencyTicks::UNDEFINED  12668154000                       # Cumulative time (in ticks) in various power states (Tick)
system.membus.reqLayer2.occupancy            70933000                       # Layer occupancy (ticks) (Tick)
system.membus.reqLayer2.utilization               0.0                       # Layer utilization (Ratio)
system.membus.respLayer0.occupancy          374401750                       # Layer occupancy (ticks) (Tick)
system.membus.respLayer0.utilization              0.0                       # Layer utilization (Ratio)
system.membus.snoop_filter.totRequests          70933                       # Total number of requests made to the snoop filter. (Count)
system.membus.snoop_filter.hitSingleRequests            0                       # Number of requests hitting in the snoop filter with a single holder of the requested data. (Count)
system.membus.snoop_filter.hitMultiRequests            0                       # Number of requests hitting in the snoop filter with multiple (>1) holders of the requested data. (Count)
system.membus.snoop_filter.totSnoops                0                       # Total number of snoops made to the snoop filter. (Count)
system.membus.snoop_filter.hitSingleSnoops            0                       # Number of snoops hitting in the snoop filter with a single holder of the requested data. (Count)
system.membus.snoop_filter.hitMultiSnoops            0                       # Number of snoops hitting in the snoop filter with multiple (>1) holders of the requested data. (Count)
system.workload.inst.arm                            0                       # number of arm instructions executed (Count)
system.workload.inst.quiesce                        0                       # number of quiesce instructions executed (Count)

---------- End Simulation Statistics   ----------
