
---------- Begin Simulation Statistics ----------
simSeconds                                   0.000049                       # Number of seconds simulated (Second)
simTicks                                     49083000                       # Number of ticks simulated (Tick)
finalTick                                    49083000                       # Number of ticks from beginning of simulation (restored from checkpoints and never reset) (Tick)
simFreq                                  1000000000000                       # The number of ticks per simulated second ((Tick/Second))
hostSeconds                                      0.10                       # Real time elapsed on the host (Second)
hostTickRate                                512364576                       # The number of ticks simulated per host second (ticks/s) ((Tick/Second))
hostMemory                                    1180500                       # Number of bytes of host memory used (Byte)
simInsts                                         8351                       # Number of instructions simulated (Count)
simOps                                          16224                       # Number of ops (including micro ops) simulated (Count)
hostInstRate                                    87099                       # Simulator instruction rate (inst/s) ((Count/Second))
hostOpRate                                     169201                       # Simulator op (including micro ops) rate (op/s) ((Count/Second))
system.L2cache.demandMisses::cpu.inst             462                       # number of demand (read+write) misses (Count)
system.L2cache.demandMisses::cpu.data             241                       # number of demand (read+write) misses (Count)
system.L2cache.demandMisses::total                703                       # number of demand (read+write) misses (Count)
system.L2cache.overallMisses::cpu.inst            462                       # number of overall misses (Count)
system.L2cache.overallMisses::cpu.data            241                       # number of overall misses (Count)
system.L2cache.overallMisses::total               703                       # number of overall misses (Count)
system.L2cache.demandMissLatency::cpu.inst     45517000                       # number of demand (read+write) miss ticks (Tick)
system.L2cache.demandMissLatency::cpu.data     25799000                       # number of demand (read+write) miss ticks (Tick)
system.L2cache.demandMissLatency::total      71316000                       # number of demand (read+write) miss ticks (Tick)
system.L2cache.overallMissLatency::cpu.inst     45517000                       # number of overall miss ticks (Tick)
system.L2cache.overallMissLatency::cpu.data     25799000                       # number of overall miss ticks (Tick)
system.L2cache.overallMissLatency::total     71316000                       # number of overall miss ticks (Tick)
system.L2cache.demandAccesses::cpu.inst           462                       # number of demand (read+write) accesses (Count)
system.L2cache.demandAccesses::cpu.data           241                       # number of demand (read+write) accesses (Count)
system.L2cache.demandAccesses::total              703                       # number of demand (read+write) accesses (Count)
system.L2cache.overallAccesses::cpu.inst          462                       # number of overall (read+write) accesses (Count)
system.L2cache.overallAccesses::cpu.data          241                       # number of overall (read+write) accesses (Count)
system.L2cache.overallAccesses::total             703                       # number of overall (read+write) accesses (Count)
system.L2cache.demandMissRate::cpu.inst             1                       # miss rate for demand accesses (Ratio)
system.L2cache.demandMissRate::cpu.data             1                       # miss rate for demand accesses (Ratio)
system.L2cache.demandMissRate::total                1                       # miss rate for demand accesses (Ratio)
system.L2cache.overallMissRate::cpu.inst            1                       # miss rate for overall accesses (Ratio)
system.L2cache.overallMissRate::cpu.data            1                       # miss rate for overall accesses (Ratio)
system.L2cache.overallMissRate::total               1                       # miss rate for overall accesses (Ratio)
system.L2cache.demandAvgMissLatency::cpu.inst 98521.645022                       # average overall miss latency ((Cycle/Count))
system.L2cache.demandAvgMissLatency::cpu.data 107049.792531                       # average overall miss latency ((Cycle/Count))
system.L2cache.demandAvgMissLatency::total 101445.234708                       # average overall miss latency ((Cycle/Count))
system.L2cache.overallAvgMissLatency::cpu.inst 98521.645022                       # average overall miss latency ((Cycle/Count))
system.L2cache.overallAvgMissLatency::cpu.data 107049.792531                       # average overall miss latency ((Cycle/Count))
system.L2cache.overallAvgMissLatency::total 101445.234708                       # average overall miss latency ((Cycle/Count))
system.L2cache.blockedCycles::no_mshrs              0                       # number of cycles access was blocked (Cycle)
system.L2cache.blockedCycles::no_targets            0                       # number of cycles access was blocked (Cycle)
system.L2cache.blockedCauses::no_mshrs              0                       # number of times access was blocked (Count)
system.L2cache.blockedCauses::no_targets            0                       # number of times access was blocked (Count)
system.L2cache.avgBlocked::no_mshrs               nan                       # average number of cycles each access was blocked ((Cycle/Count))
system.L2cache.avgBlocked::no_targets             nan                       # average number of cycles each access was blocked ((Cycle/Count))
system.L2cache.demandMshrMisses::cpu.inst          462                       # number of demand (read+write) MSHR misses (Count)
system.L2cache.demandMshrMisses::cpu.data          241                       # number of demand (read+write) MSHR misses (Count)
system.L2cache.demandMshrMisses::total            703                       # number of demand (read+write) MSHR misses (Count)
system.L2cache.overallMshrMisses::cpu.inst          462                       # number of overall MSHR misses (Count)
system.L2cache.overallMshrMisses::cpu.data          241                       # number of overall MSHR misses (Count)
system.L2cache.overallMshrMisses::total           703                       # number of overall MSHR misses (Count)
system.L2cache.demandMshrMissLatency::cpu.inst     36297000                       # number of demand (read+write) MSHR miss ticks (Tick)
system.L2cache.demandMshrMissLatency::cpu.data     20979000                       # number of demand (read+write) MSHR miss ticks (Tick)
system.L2cache.demandMshrMissLatency::total     57276000                       # number of demand (read+write) MSHR miss ticks (Tick)
system.L2cache.overallMshrMissLatency::cpu.inst     36297000                       # number of overall MSHR miss ticks (Tick)
system.L2cache.overallMshrMissLatency::cpu.data     20979000                       # number of overall MSHR miss ticks (Tick)
system.L2cache.overallMshrMissLatency::total     57276000                       # number of overall MSHR miss ticks (Tick)
system.L2cache.demandMshrMissRate::cpu.inst            1                       # mshr miss ratio for demand accesses (Ratio)
system.L2cache.demandMshrMissRate::cpu.data            1                       # mshr miss ratio for demand accesses (Ratio)
system.L2cache.demandMshrMissRate::total            1                       # mshr miss ratio for demand accesses (Ratio)
system.L2cache.overallMshrMissRate::cpu.inst            1                       # mshr miss ratio for overall accesses (Ratio)
system.L2cache.overallMshrMissRate::cpu.data            1                       # mshr miss ratio for overall accesses (Ratio)
system.L2cache.overallMshrMissRate::total            1                       # mshr miss ratio for overall accesses (Ratio)
system.L2cache.demandAvgMshrMissLatency::cpu.inst 78564.935065                       # average overall mshr miss latency ((Cycle/Count))
system.L2cache.demandAvgMshrMissLatency::cpu.data 87049.792531                       # average overall mshr miss latency ((Cycle/Count))
system.L2cache.demandAvgMshrMissLatency::total 81473.684211                       # average overall mshr miss latency ((Cycle/Count))
system.L2cache.overallAvgMshrMissLatency::cpu.inst 78564.935065                       # average overall mshr miss latency ((Cycle/Count))
system.L2cache.overallAvgMshrMissLatency::cpu.data 87049.792531                       # average overall mshr miss latency ((Cycle/Count))
system.L2cache.overallAvgMshrMissLatency::total 81473.684211                       # average overall mshr miss latency ((Cycle/Count))
system.L2cache.replacements                         0                       # number of replacements (Count)
system.L2cache.ReadExReq.misses::cpu.data          117                       # number of ReadExReq misses (Count)
system.L2cache.ReadExReq.misses::total            117                       # number of ReadExReq misses (Count)
system.L2cache.ReadExReq.missLatency::cpu.data     12234000                       # number of ReadExReq miss ticks (Tick)
system.L2cache.ReadExReq.missLatency::total     12234000                       # number of ReadExReq miss ticks (Tick)
system.L2cache.ReadExReq.accesses::cpu.data          117                       # number of ReadExReq accesses(hits+misses) (Count)
system.L2cache.ReadExReq.accesses::total          117                       # number of ReadExReq accesses(hits+misses) (Count)
system.L2cache.ReadExReq.missRate::cpu.data            1                       # miss rate for ReadExReq accesses (Ratio)
system.L2cache.ReadExReq.missRate::total            1                       # miss rate for ReadExReq accesses (Ratio)
system.L2cache.ReadExReq.avgMissLatency::cpu.data 104564.102564                       # average ReadExReq miss latency ((Tick/Count))
system.L2cache.ReadExReq.avgMissLatency::total 104564.102564                       # average ReadExReq miss latency ((Tick/Count))
system.L2cache.ReadExReq.mshrMisses::cpu.data          117                       # number of ReadExReq MSHR misses (Count)
system.L2cache.ReadExReq.mshrMisses::total          117                       # number of ReadExReq MSHR misses (Count)
system.L2cache.ReadExReq.mshrMissLatency::cpu.data      9894000                       # number of ReadExReq MSHR miss ticks (Tick)
system.L2cache.ReadExReq.mshrMissLatency::total      9894000                       # number of ReadExReq MSHR miss ticks (Tick)
system.L2cache.ReadExReq.mshrMissRate::cpu.data            1                       # mshr miss rate for ReadExReq accesses (Ratio)
system.L2cache.ReadExReq.mshrMissRate::total            1                       # mshr miss rate for ReadExReq accesses (Ratio)
system.L2cache.ReadExReq.avgMshrMissLatency::cpu.data 84564.102564                       # average ReadExReq mshr miss latency ((Tick/Count))
system.L2cache.ReadExReq.avgMshrMissLatency::total 84564.102564                       # average ReadExReq mshr miss latency ((Tick/Count))
system.L2cache.ReadSharedReq.misses::cpu.inst          462                       # number of ReadSharedReq misses (Count)
system.L2cache.ReadSharedReq.misses::cpu.data          124                       # number of ReadSharedReq misses (Count)
system.L2cache.ReadSharedReq.misses::total          586                       # number of ReadSharedReq misses (Count)
system.L2cache.ReadSharedReq.missLatency::cpu.inst     45517000                       # number of ReadSharedReq miss ticks (Tick)
system.L2cache.ReadSharedReq.missLatency::cpu.data     13565000                       # number of ReadSharedReq miss ticks (Tick)
system.L2cache.ReadSharedReq.missLatency::total     59082000                       # number of ReadSharedReq miss ticks (Tick)
system.L2cache.ReadSharedReq.accesses::cpu.inst          462                       # number of ReadSharedReq accesses(hits+misses) (Count)
system.L2cache.ReadSharedReq.accesses::cpu.data          124                       # number of ReadSharedReq accesses(hits+misses) (Count)
system.L2cache.ReadSharedReq.accesses::total          586                       # number of ReadSharedReq accesses(hits+misses) (Count)
system.L2cache.ReadSharedReq.missRate::cpu.inst            1                       # miss rate for ReadSharedReq accesses (Ratio)
system.L2cache.ReadSharedReq.missRate::cpu.data            1                       # miss rate for ReadSharedReq accesses (Ratio)
system.L2cache.ReadSharedReq.missRate::total            1                       # miss rate for ReadSharedReq accesses (Ratio)
system.L2cache.ReadSharedReq.avgMissLatency::cpu.inst 98521.645022                       # average ReadSharedReq miss latency ((Tick/Count))
system.L2cache.ReadSharedReq.avgMissLatency::cpu.data 109395.161290                       # average ReadSharedReq miss latency ((Tick/Count))
system.L2cache.ReadSharedReq.avgMissLatency::total 100822.525597                       # average ReadSharedReq miss latency ((Tick/Count))
system.L2cache.ReadSharedReq.mshrMisses::cpu.inst          462                       # number of ReadSharedReq MSHR misses (Count)
system.L2cache.ReadSharedReq.mshrMisses::cpu.data          124                       # number of ReadSharedReq MSHR misses (Count)
system.L2cache.ReadSharedReq.mshrMisses::total          586                       # number of ReadSharedReq MSHR misses (Count)
system.L2cache.ReadSharedReq.mshrMissLatency::cpu.inst     36297000                       # number of ReadSharedReq MSHR miss ticks (Tick)
system.L2cache.ReadSharedReq.mshrMissLatency::cpu.data     11085000                       # number of ReadSharedReq MSHR miss ticks (Tick)
system.L2cache.ReadSharedReq.mshrMissLatency::total     47382000                       # number of ReadSharedReq MSHR miss ticks (Tick)
system.L2cache.ReadSharedReq.mshrMissRate::cpu.inst            1                       # mshr miss rate for ReadSharedReq accesses (Ratio)
system.L2cache.ReadSharedReq.mshrMissRate::cpu.data            1                       # mshr miss rate for ReadSharedReq accesses (Ratio)
system.L2cache.ReadSharedReq.mshrMissRate::total            1                       # mshr miss rate for ReadSharedReq accesses (Ratio)
system.L2cache.ReadSharedReq.avgMshrMissLatency::cpu.inst 78564.935065                       # average ReadSharedReq mshr miss latency ((Tick/Count))
system.L2cache.ReadSharedReq.avgMshrMissLatency::cpu.data 89395.161290                       # average ReadSharedReq mshr miss latency ((Tick/Count))
system.L2cache.ReadSharedReq.avgMshrMissLatency::total 80856.655290                       # average ReadSharedReq mshr miss latency ((Tick/Count))
system.L2cache.power_state.pwrStateResidencyTicks::UNDEFINED     49083000                       # Cumulative time (in ticks) in various power states (Tick)
system.L2cache.tags.tagsInUse              359.073556                       # Average ticks per tags in use ((Tick/Count))
system.L2cache.tags.totalRefs                     727                       # Total number of references to valid blocks. (Count)
system.L2cache.tags.sampledRefs                   702                       # Sample count of references to valid blocks. (Count)
system.L2cache.tags.avgRefs                  1.035613                       # Average number of references to valid blocks. ((Count/Count))
system.L2cache.tags.warmupTick                  86000                       # The tick when the warmup percentage was hit. (Tick)
system.L2cache.tags.occupancies::cpu.inst   225.502032                       # Average occupied blocks per tick, per requestor ((Count/Tick))
system.L2cache.tags.occupancies::cpu.data   133.571524                       # Average occupied blocks per tick, per requestor ((Count/Tick))
system.L2cache.tags.avgOccs::cpu.inst        0.006882                       # Average percentage of cache occupancy ((Ratio/Tick))
system.L2cache.tags.avgOccs::cpu.data        0.004076                       # Average percentage of cache occupancy ((Ratio/Tick))
system.L2cache.tags.avgOccs::total           0.010958                       # Average percentage of cache occupancy ((Ratio/Tick))
system.L2cache.tags.occupanciesTaskId::1024          702                       # Occupied blocks per task id (Count)
system.L2cache.tags.ageTaskId_1024::0             150                       # Occupied blocks per task id, per block age (Count)
system.L2cache.tags.ageTaskId_1024::1             552                       # Occupied blocks per task id, per block age (Count)
system.L2cache.tags.ratioOccsTaskId::1024     0.021423                       # Ratio of occupied blocks and all blocks, per task id (Ratio)
system.L2cache.tags.tagAccesses                  6526                       # Number of tag accesses (Count)
system.L2cache.tags.dataAccesses                 6526                       # Number of data accesses (Count)
system.L2cache.tags.power_state.pwrStateResidencyTicks::UNDEFINED     49083000                       # Cumulative time (in ticks) in various power states (Tick)
system.clk_domain.clock                          1000                       # Clock period in ticks (Tick)
system.clk_domain.voltage_domain.voltage            1                       # Voltage in Volts (Volt)
system.cpu.numCycles                            49084                       # Number of cpu cycles simulated (Cycle)
system.cpu.numWorkItemsStarted                      0                       # Number of work items this cpu started (Count)
system.cpu.numWorkItemsCompleted                    0                       # Number of work items this cpu completed (Count)
system.cpu.instsAdded                           28998                       # Number of instructions added to the IQ (excludes non-spec) (Count)
system.cpu.nonSpecInstsAdded                        5                       # Number of non-speculative instructions added to the IQ (Count)
system.cpu.instsIssued                          26037                       # Number of instructions issued (Count)
system.cpu.squashedInstsIssued                     38                       # Number of squashed instructions issued (Count)
system.cpu.squashedInstsExamined                12773                       # Number of squashed instructions iterated over during squash; mainly for profiling (Count)
system.cpu.squashedOperandsExamined             14550                       # Number of squashed operands that are examined and possibly removed from graph (Count)
system.cpu.squashedNonSpecRemoved                   4                       # Number of squashed non-spec instructions that were removed (Count)
system.cpu.numIssuedDist::samples               29269                       # Number of insts issued each cycle (Count)
system.cpu.numIssuedDist::mean               0.889576                       # Number of insts issued each cycle (Count)
system.cpu.numIssuedDist::stdev              1.838787                       # Number of insts issued each cycle (Count)
system.cpu.numIssuedDist::underflows                0      0.00%      0.00% # Number of insts issued each cycle (Count)
system.cpu.numIssuedDist::0                     21765     74.36%     74.36% # Number of insts issued each cycle (Count)
system.cpu.numIssuedDist::1                      1727      5.90%     80.26% # Number of insts issued each cycle (Count)
system.cpu.numIssuedDist::2                      1243      4.25%     84.51% # Number of insts issued each cycle (Count)
system.cpu.numIssuedDist::3                      1163      3.97%     88.48% # Number of insts issued each cycle (Count)
system.cpu.numIssuedDist::4                       994      3.40%     91.88% # Number of insts issued each cycle (Count)
system.cpu.numIssuedDist::5                       864      2.95%     94.83% # Number of insts issued each cycle (Count)
system.cpu.numIssuedDist::6                       797      2.72%     97.55% # Number of insts issued each cycle (Count)
system.cpu.numIssuedDist::7                       471      1.61%     99.16% # Number of insts issued each cycle (Count)
system.cpu.numIssuedDist::8                       245      0.84%    100.00% # Number of insts issued each cycle (Count)
system.cpu.numIssuedDist::overflows                 0      0.00%    100.00% # Number of insts issued each cycle (Count)
system.cpu.numIssuedDist::min_value                 0                       # Number of insts issued each cycle (Count)
system.cpu.numIssuedDist::max_value                 8                       # Number of insts issued each cycle (Count)
system.cpu.numIssuedDist::total                 29269                       # Number of insts issued each cycle (Count)
system.cpu.statFuBusy::No_OpClass                   0      0.00%      0.00% # attempts to use FU when none available (Count)
system.cpu.statFuBusy::IntAlu                     245     77.04%     77.04% # attempts to use FU when none available (Count)
system.cpu.statFuBusy::IntMult                      0      0.00%     77.04% # attempts to use FU when none available (Count)
system.cpu.statFuBusy::IntDiv                       0      0.00%     77.04% # attempts to use FU when none available (Count)
system.cpu.statFuBusy::FloatAdd                     0      0.00%     77.04% # attempts to use FU when none available (Count)
system.cpu.statFuBusy::FloatCmp                     0      0.00%     77.04% # attempts to use FU when none available (Count)
system.cpu.statFuBusy::FloatCvt                     0      0.00%     77.04% # attempts to use FU when none available (Count)
system.cpu.statFuBusy::FloatMult                    0      0.00%     77.04% # attempts to use FU when none available (Count)
system.cpu.statFuBusy::FloatMultAcc                 0      0.00%     77.04% # attempts to use FU when none available (Count)
system.cpu.statFuBusy::FloatDiv                     0      0.00%     77.04% # attempts to use FU when none available (Count)
system.cpu.statFuBusy::FloatMisc                    0      0.00%     77.04% # attempts to use FU when none available (Count)
system.cpu.statFuBusy::FloatSqrt                    0      0.00%     77.04% # attempts to use FU when none available (Count)
system.cpu.statFuBusy::SimdAdd                      0      0.00%     77.04% # attempts to use FU when none available (Count)
system.cpu.statFuBusy::SimdAddAcc                   0      0.00%     77.04% # attempts to use FU when none available (Count)
system.cpu.statFuBusy::SimdAlu                     11      3.46%     80.50% # attempts to use FU when none available (Count)
system.cpu.statFuBusy::SimdCmp                      0      0.00%     80.50% # attempts to use FU when none available (Count)
system.cpu.statFuBusy::SimdCvt                      3      0.94%     81.45% # attempts to use FU when none available (Count)
system.cpu.statFuBusy::SimdMisc                     3      0.94%     82.39% # attempts to use FU when none available (Count)
system.cpu.statFuBusy::SimdMult                     0      0.00%     82.39% # attempts to use FU when none available (Count)
system.cpu.statFuBusy::SimdMultAcc                  0      0.00%     82.39% # attempts to use FU when none available (Count)
system.cpu.statFuBusy::SimdShift                    0      0.00%     82.39% # attempts to use FU when none available (Count)
system.cpu.statFuBusy::SimdShiftAcc                 0      0.00%     82.39% # attempts to use FU when none available (Count)
system.cpu.statFuBusy::SimdDiv                      0      0.00%     82.39% # attempts to use FU when none available (Count)
system.cpu.statFuBusy::SimdSqrt                     0      0.00%     82.39% # attempts to use FU when none available (Count)
system.cpu.statFuBusy::SimdFloatAdd                 0      0.00%     82.39% # attempts to use FU when none available (Count)
system.cpu.statFuBusy::SimdFloatAlu                 0      0.00%     82.39% # attempts to use FU when none available (Count)
system.cpu.statFuBusy::SimdFloatCmp                 0      0.00%     82.39% # attempts to use FU when none available (Count)
system.cpu.statFuBusy::SimdFloatCvt                 0      0.00%     82.39% # attempts to use FU when none available (Count)
system.cpu.statFuBusy::SimdFloatDiv                 0      0.00%     82.39% # attempts to use FU when none available (Count)
system.cpu.statFuBusy::SimdFloatMisc                0      0.00%     82.39% # attempts to use FU when none available (Count)
system.cpu.statFuBusy::SimdFloatMult                0      0.00%     82.39% # attempts to use FU when none available (Count)
system.cpu.statFuBusy::SimdFloatMultAcc             0      0.00%     82.39% # attempts to use FU when none available (Count)
system.cpu.statFuBusy::SimdFloatSqrt                0      0.00%     82.39% # attempts to use FU when none available (Count)
system.cpu.statFuBusy::SimdReduceAdd                0      0.00%     82.39% # attempts to use FU when none available (Count)
system.cpu.statFuBusy::SimdReduceAlu                0      0.00%     82.39% # attempts to use FU when none available (Count)
system.cpu.statFuBusy::SimdReduceCmp                0      0.00%     82.39% # attempts to use FU when none available (Count)
system.cpu.statFuBusy::SimdFloatReduceAdd            0      0.00%     82.39% # attempts to use FU when none available (Count)
system.cpu.statFuBusy::SimdFloatReduceCmp            0      0.00%     82.39% # attempts to use FU when none available (Count)
system.cpu.statFuBusy::SimdAes                      0      0.00%     82.39% # attempts to use FU when none available (Count)
system.cpu.statFuBusy::SimdAesMix                   0      0.00%     82.39% # attempts to use FU when none available (Count)
system.cpu.statFuBusy::SimdSha1Hash                 0      0.00%     82.39% # attempts to use FU when none available (Count)
system.cpu.statFuBusy::SimdSha1Hash2                0      0.00%     82.39% # attempts to use FU when none available (Count)
system.cpu.statFuBusy::SimdSha256Hash               0      0.00%     82.39% # attempts to use FU when none available (Count)
system.cpu.statFuBusy::SimdSha256Hash2              0      0.00%     82.39% # attempts to use FU when none available (Count)
system.cpu.statFuBusy::SimdShaSigma2                0      0.00%     82.39% # attempts to use FU when none available (Count)
system.cpu.statFuBusy::SimdShaSigma3                0      0.00%     82.39% # attempts to use FU when none available (Count)
system.cpu.statFuBusy::SimdPredAlu                  0      0.00%     82.39% # attempts to use FU when none available (Count)
system.cpu.statFuBusy::MemRead                     26      8.18%     90.57% # attempts to use FU when none available (Count)
system.cpu.statFuBusy::MemWrite                    18      5.66%     96.23% # attempts to use FU when none available (Count)
system.cpu.statFuBusy::FloatMemRead                 4      1.26%     97.48% # attempts to use FU when none available (Count)
system.cpu.statFuBusy::FloatMemWrite                8      2.52%    100.00% # attempts to use FU when none available (Count)
system.cpu.statFuBusy::IprAccess                    0      0.00%    100.00% # attempts to use FU when none available (Count)
system.cpu.statFuBusy::InstPrefetch                 0      0.00%    100.00% # attempts to use FU when none available (Count)
system.cpu.statIssuedInstType_0::No_OpClass          677      2.60%      2.60% # Number of instructions issued per FU type, per thread (Count)
system.cpu.statIssuedInstType_0::IntAlu         19576     75.19%     77.79% # Number of instructions issued per FU type, per thread (Count)
system.cpu.statIssuedInstType_0::IntMult            5      0.02%     77.80% # Number of instructions issued per FU type, per thread (Count)
system.cpu.statIssuedInstType_0::IntDiv            25      0.10%     77.90% # Number of instructions issued per FU type, per thread (Count)
system.cpu.statIssuedInstType_0::FloatAdd          136      0.52%     78.42% # Number of instructions issued per FU type, per thread (Count)
system.cpu.statIssuedInstType_0::FloatCmp            0      0.00%     78.42% # Number of instructions issued per FU type, per thread (Count)
system.cpu.statIssuedInstType_0::FloatCvt            0      0.00%     78.42% # Number of instructions issued per FU type, per thread (Count)
system.cpu.statIssuedInstType_0::FloatMult            0      0.00%     78.42% # Number of instructions issued per FU type, per thread (Count)
system.cpu.statIssuedInstType_0::FloatMultAcc            0      0.00%     78.42% # Number of instructions issued per FU type, per thread (Count)
system.cpu.statIssuedInstType_0::FloatDiv            0      0.00%     78.42% # Number of instructions issued per FU type, per thread (Count)
system.cpu.statIssuedInstType_0::FloatMisc            0      0.00%     78.42% # Number of instructions issued per FU type, per thread (Count)
system.cpu.statIssuedInstType_0::FloatSqrt            0      0.00%     78.42% # Number of instructions issued per FU type, per thread (Count)
system.cpu.statIssuedInstType_0::SimdAdd            0      0.00%     78.42% # Number of instructions issued per FU type, per thread (Count)
system.cpu.statIssuedInstType_0::SimdAddAcc            0      0.00%     78.42% # Number of instructions issued per FU type, per thread (Count)
system.cpu.statIssuedInstType_0::SimdAlu          166      0.64%     79.06% # Number of instructions issued per FU type, per thread (Count)
system.cpu.statIssuedInstType_0::SimdCmp            0      0.00%     79.06% # Number of instructions issued per FU type, per thread (Count)
system.cpu.statIssuedInstType_0::SimdCvt           48      0.18%     79.24% # Number of instructions issued per FU type, per thread (Count)
system.cpu.statIssuedInstType_0::SimdMisc          218      0.84%     80.08% # Number of instructions issued per FU type, per thread (Count)
system.cpu.statIssuedInstType_0::SimdMult            0      0.00%     80.08% # Number of instructions issued per FU type, per thread (Count)
system.cpu.statIssuedInstType_0::SimdMultAcc            0      0.00%     80.08% # Number of instructions issued per FU type, per thread (Count)
system.cpu.statIssuedInstType_0::SimdShift            0      0.00%     80.08% # Number of instructions issued per FU type, per thread (Count)
system.cpu.statIssuedInstType_0::SimdShiftAcc            0      0.00%     80.08% # Number of instructions issued per FU type, per thread (Count)
system.cpu.statIssuedInstType_0::SimdDiv            0      0.00%     80.08% # Number of instructions issued per FU type, per thread (Count)
system.cpu.statIssuedInstType_0::SimdSqrt            0      0.00%     80.08% # Number of instructions issued per FU type, per thread (Count)
system.cpu.statIssuedInstType_0::SimdFloatAdd            0      0.00%     80.08% # Number of instructions issued per FU type, per thread (Count)
system.cpu.statIssuedInstType_0::SimdFloatAlu            0      0.00%     80.08% # Number of instructions issued per FU type, per thread (Count)
system.cpu.statIssuedInstType_0::SimdFloatCmp            0      0.00%     80.08% # Number of instructions issued per FU type, per thread (Count)
system.cpu.statIssuedInstType_0::SimdFloatCvt            0      0.00%     80.08% # Number of instructions issued per FU type, per thread (Count)
system.cpu.statIssuedInstType_0::SimdFloatDiv            0      0.00%     80.08% # Number of instructions issued per FU type, per thread (Count)
system.cpu.statIssuedInstType_0::SimdFloatMisc            0      0.00%     80.08% # Number of instructions issued per FU type, per thread (Count)
system.cpu.statIssuedInstType_0::SimdFloatMult            0      0.00%     80.08% # Number of instructions issued per FU type, per thread (Count)
system.cpu.statIssuedInstType_0::SimdFloatMultAcc            0      0.00%     80.08% # Number of instructions issued per FU type, per thread (Count)
system.cpu.statIssuedInstType_0::SimdFloatSqrt            0      0.00%     80.08% # Number of instructions issued per FU type, per thread (Count)
system.cpu.statIssuedInstType_0::SimdReduceAdd            0      0.00%     80.08% # Number of instructions issued per FU type, per thread (Count)
system.cpu.statIssuedInstType_0::SimdReduceAlu            0      0.00%     80.08% # Number of instructions issued per FU type, per thread (Count)
system.cpu.statIssuedInstType_0::SimdReduceCmp            0      0.00%     80.08% # Number of instructions issued per FU type, per thread (Count)
system.cpu.statIssuedInstType_0::SimdFloatReduceAdd            0      0.00%     80.08% # Number of instructions issued per FU type, per thread (Count)
system.cpu.statIssuedInstType_0::SimdFloatReduceCmp            0      0.00%     80.08% # Number of instructions issued per FU type, per thread (Count)
system.cpu.statIssuedInstType_0::SimdAes            0      0.00%     80.08% # Number of instructions issued per FU type, per thread (Count)
system.cpu.statIssuedInstType_0::SimdAesMix            0      0.00%     80.08% # Number of instructions issued per FU type, per thread (Count)
system.cpu.statIssuedInstType_0::SimdSha1Hash            0      0.00%     80.08% # Number of instructions issued per FU type, per thread (Count)
system.cpu.statIssuedInstType_0::SimdSha1Hash2            0      0.00%     80.08% # Number of instructions issued per FU type, per thread (Count)
system.cpu.statIssuedInstType_0::SimdSha256Hash            0      0.00%     80.08% # Number of instructions issued per FU type, per thread (Count)
system.cpu.statIssuedInstType_0::SimdSha256Hash2            0      0.00%     80.08% # Number of instructions issued per FU type, per thread (Count)
system.cpu.statIssuedInstType_0::SimdShaSigma2            0      0.00%     80.08% # Number of instructions issued per FU type, per thread (Count)
system.cpu.statIssuedInstType_0::SimdShaSigma3            0      0.00%     80.08% # Number of instructions issued per FU type, per thread (Count)
system.cpu.statIssuedInstType_0::SimdPredAlu            0      0.00%     80.08% # Number of instructions issued per FU type, per thread (Count)
system.cpu.statIssuedInstType_0::MemRead         2816     10.82%     90.90% # Number of instructions issued per FU type, per thread (Count)
system.cpu.statIssuedInstType_0::MemWrite         1739      6.68%     97.58% # Number of instructions issued per FU type, per thread (Count)
system.cpu.statIssuedInstType_0::FloatMemRead           90      0.35%     97.92% # Number of instructions issued per FU type, per thread (Count)
system.cpu.statIssuedInstType_0::FloatMemWrite          541      2.08%    100.00% # Number of instructions issued per FU type, per thread (Count)
system.cpu.statIssuedInstType_0::IprAccess            0      0.00%    100.00% # Number of instructions issued per FU type, per thread (Count)
system.cpu.statIssuedInstType_0::InstPrefetch            0      0.00%    100.00% # Number of instructions issued per FU type, per thread (Count)
system.cpu.statIssuedInstType_0::total          26037                       # Number of instructions issued per FU type, per thread (Count)
system.cpu.issueRate                         0.530458                       # Inst issue rate ((Count/Cycle))
system.cpu.fuBusy                                 318                       # FU busy when requested (Count)
system.cpu.fuBusyRate                        0.012213                       # FU busy rate (busy events/executed inst) ((Count/Count))
system.cpu.intInstQueueReads                    78988                       # Number of integer instruction queue reads (Count)
system.cpu.intInstQueueWrites                   40192                       # Number of integer instruction queue writes (Count)
system.cpu.intInstQueueWakeupAccesses           23175                       # Number of integer instruction queue wakeup accesses (Count)
system.cpu.fpInstQueueReads                      2711                       # Number of floating instruction queue reads (Count)
system.cpu.fpInstQueueWrites                     1599                       # Number of floating instruction queue writes (Count)
system.cpu.fpInstQueueWakeupAccesses             1286                       # Number of floating instruction queue wakeup accesses (Count)
system.cpu.vecInstQueueReads                        0                       # Number of vector instruction queue reads (Count)
system.cpu.vecInstQueueWrites                       0                       # Number of vector instruction queue writes (Count)
system.cpu.vecInstQueueWakeupAccesses               0                       # Number of vector instruction queue wakeup accesses (Count)
system.cpu.intAluAccesses                       24310                       # Number of integer alu accesses (Count)
system.cpu.fpAluAccesses                         1368                       # Number of floating point alu accesses (Count)
system.cpu.vecAluAccesses                           0                       # Number of vector alu accesses (Count)
system.cpu.numInsts                             25191                       # Number of executed instructions (Count)
system.cpu.numLoadInsts                          2710                       # Number of load instructions executed (Count)
system.cpu.numSquashedInsts                       846                       # Number of squashed instructions skipped in execute (Count)
system.cpu.numSwp                                   0                       # Number of swp insts executed (Count)
system.cpu.numNop                                   0                       # Number of nop insts executed (Count)
system.cpu.numRefs                               4898                       # Number of memory reference insts executed (Count)
system.cpu.numBranches                           2423                       # Number of branches executed (Count)
system.cpu.numStoreInsts                         2188                       # Number of stores executed (Count)
system.cpu.numRate                           0.513222                       # Inst execution rate ((Count/Cycle))
system.cpu.timesIdled                             291                       # Number of times that the entire CPU went into an idle state and unscheduled itself (Count)
system.cpu.idleCycles                           19815                       # Total number of cycles that the CPU has spent unscheduled due to idling (Cycle)
system.cpu.committedInsts                        8351                       # Number of Instructions Simulated (Count)
system.cpu.committedOps                         16224                       # Number of Ops (including micro ops) Simulated (Count)
system.cpu.cpi                               5.877619                       # CPI: Cycles Per Instruction ((Cycle/Count))
system.cpu.totalCpi                          5.877619                       # CPI: Total CPI of All Threads ((Cycle/Count))
system.cpu.ipc                               0.170137                       # IPC: Instructions Per Cycle ((Count/Cycle))
system.cpu.totalIpc                          0.170137                       # IPC: Total IPC of All Threads ((Count/Cycle))
system.cpu.intRegfileReads                      33944                       # Number of integer regfile reads (Count)
system.cpu.intRegfileWrites                     18804                       # Number of integer regfile writes (Count)
system.cpu.fpRegfileReads                        1539                       # Number of floating regfile reads (Count)
system.cpu.fpRegfileWrites                        732                       # Number of floating regfile writes (Count)
system.cpu.ccRegfileReads                       10911                       # number of cc regfile reads (Count)
system.cpu.ccRegfileWrites                       7044                       # number of cc regfile writes (Count)
system.cpu.miscRegfileReads                     10805                       # number of misc regfile reads (Count)
system.cpu.miscRegfileWrites                        1                       # number of misc regfile writes (Count)
system.cpu.MemDepUnit__0.insertedLoads           3189                       # Number of loads inserted to the mem dependence unit. (Count)
system.cpu.MemDepUnit__0.insertedStores          2646                       # Number of stores inserted to the mem dependence unit. (Count)
system.cpu.MemDepUnit__0.conflictingLoads           25                       # Number of conflicting loads. (Count)
system.cpu.MemDepUnit__0.conflictingStores           13                       # Number of conflicting stores. (Count)
system.cpu.MemDepUnit__1.insertedLoads              0                       # Number of loads inserted to the mem dependence unit. (Count)
system.cpu.MemDepUnit__1.insertedStores             0                       # Number of stores inserted to the mem dependence unit. (Count)
system.cpu.MemDepUnit__1.conflictingLoads            0                       # Number of conflicting loads. (Count)
system.cpu.MemDepUnit__1.conflictingStores            0                       # Number of conflicting stores. (Count)
system.cpu.MemDepUnit__2.insertedLoads              0                       # Number of loads inserted to the mem dependence unit. (Count)
system.cpu.MemDepUnit__2.insertedStores             0                       # Number of stores inserted to the mem dependence unit. (Count)
system.cpu.MemDepUnit__2.conflictingLoads            0                       # Number of conflicting loads. (Count)
system.cpu.MemDepUnit__2.conflictingStores            0                       # Number of conflicting stores. (Count)
system.cpu.MemDepUnit__3.insertedLoads              0                       # Number of loads inserted to the mem dependence unit. (Count)
system.cpu.MemDepUnit__3.insertedStores             0                       # Number of stores inserted to the mem dependence unit. (Count)
system.cpu.MemDepUnit__3.conflictingLoads            0                       # Number of conflicting loads. (Count)
system.cpu.MemDepUnit__3.conflictingStores            0                       # Number of conflicting stores. (Count)
system.cpu.branchPred.lookups                    4044                       # Number of BP lookups (Count)
system.cpu.branchPred.condPredicted              2792                       # Number of conditional branches predicted (Count)
system.cpu.branchPred.condIncorrect               686                       # Number of conditional branches incorrect (Count)
system.cpu.branchPred.BTBLookups                 1852                       # Number of BTB lookups (Count)
system.cpu.branchPred.BTBHits                    1066                       # Number of BTB hits (Count)
system.cpu.branchPred.BTBHitRatio            0.575594                       # BTB Hit Ratio (Ratio)
system.cpu.branchPred.RASUsed                     302                       # Number of times the RAS was used to get a target. (Count)
system.cpu.branchPred.RASIncorrect                  0                       # Number of incorrect RAS predictions. (Count)
system.cpu.branchPred.indirectLookups             311                       # Number of indirect predictor lookups. (Count)
system.cpu.branchPred.indirectHits                 19                       # Number of indirect target hits. (Count)
system.cpu.branchPred.indirectMisses              292                       # Number of indirect misses. (Count)
system.cpu.branchPred.indirectMispredicted           92                       # Number of mispredicted indirect branches. (Count)
system.cpu.commit.commitSquashedInsts           12570                       # The number of squashed insts skipped by commit (Count)
system.cpu.commit.commitNonSpecStalls               1                       # The number of times commit has been forced to stall to communicate backwards (Count)
system.cpu.commit.branchMispredicts               595                       # The number of times a branch was mispredicted (Count)
system.cpu.commit.numCommittedDist::samples        27207                       # Number of insts commited each cycle (Count)
system.cpu.commit.numCommittedDist::mean     0.596317                       # Number of insts commited each cycle (Count)
system.cpu.commit.numCommittedDist::stdev     1.573476                       # Number of insts commited each cycle (Count)
system.cpu.commit.numCommittedDist::underflows            0      0.00%      0.00% # Number of insts commited each cycle (Count)
system.cpu.commit.numCommittedDist::0           22051     81.05%     81.05% # Number of insts commited each cycle (Count)
system.cpu.commit.numCommittedDist::1            1603      5.89%     86.94% # Number of insts commited each cycle (Count)
system.cpu.commit.numCommittedDist::2             894      3.29%     90.23% # Number of insts commited each cycle (Count)
system.cpu.commit.numCommittedDist::3             987      3.63%     93.85% # Number of insts commited each cycle (Count)
system.cpu.commit.numCommittedDist::4             540      1.98%     95.84% # Number of insts commited each cycle (Count)
system.cpu.commit.numCommittedDist::5             285      1.05%     96.89% # Number of insts commited each cycle (Count)
system.cpu.commit.numCommittedDist::6             166      0.61%     97.50% # Number of insts commited each cycle (Count)
system.cpu.commit.numCommittedDist::7             157      0.58%     98.07% # Number of insts commited each cycle (Count)
system.cpu.commit.numCommittedDist::8             524      1.93%    100.00% # Number of insts commited each cycle (Count)
system.cpu.commit.numCommittedDist::overflows            0      0.00%    100.00% # Number of insts commited each cycle (Count)
system.cpu.commit.numCommittedDist::min_value            0                       # Number of insts commited each cycle (Count)
system.cpu.commit.numCommittedDist::max_value            8                       # Number of insts commited each cycle (Count)
system.cpu.commit.numCommittedDist::total        27207                       # Number of insts commited each cycle (Count)
system.cpu.commit.instsCommitted                 8351                       # Number of instructions committed (Count)
system.cpu.commit.opsCommitted                  16224                       # Number of ops (including micro ops) committed (Count)
system.cpu.commit.memRefs                        3153                       # Number of memory references committed (Count)
system.cpu.commit.loads                          1534                       # Number of loads committed (Count)
system.cpu.commit.amos                              0                       # Number of atomic instructions committed (Count)
system.cpu.commit.membars                           0                       # Number of memory barriers committed (Count)
system.cpu.commit.branches                       1720                       # Number of branches committed (Count)
system.cpu.commit.vectorInstructions                0                       # Number of committed Vector instructions. (Count)
system.cpu.commit.floating                       1141                       # Number of committed floating point instructions. (Count)
system.cpu.commit.integer                       15478                       # Number of committed integer instructions. (Count)
system.cpu.commit.functionCalls                   147                       # Number of function calls committed. (Count)
system.cpu.commit.committedInstType_0::No_OpClass          191      1.18%      1.18% # Class of committed instruction (Count)
system.cpu.commit.committedInstType_0::IntAlu        12364     76.21%     77.39% # Class of committed instruction (Count)
system.cpu.commit.committedInstType_0::IntMult            5      0.03%     77.42% # Class of committed instruction (Count)
system.cpu.commit.committedInstType_0::IntDiv           21      0.13%     77.55% # Class of committed instruction (Count)
system.cpu.commit.committedInstType_0::FloatAdd          135      0.83%     78.38% # Class of committed instruction (Count)
system.cpu.commit.committedInstType_0::FloatCmp            0      0.00%     78.38% # Class of committed instruction (Count)
system.cpu.commit.committedInstType_0::FloatCvt            0      0.00%     78.38% # Class of committed instruction (Count)
system.cpu.commit.committedInstType_0::FloatMult            0      0.00%     78.38% # Class of committed instruction (Count)
system.cpu.commit.committedInstType_0::FloatMultAcc            0      0.00%     78.38% # Class of committed instruction (Count)
system.cpu.commit.committedInstType_0::FloatDiv            0      0.00%     78.38% # Class of committed instruction (Count)
system.cpu.commit.committedInstType_0::FloatMisc            0      0.00%     78.38% # Class of committed instruction (Count)
system.cpu.commit.committedInstType_0::FloatSqrt            0      0.00%     78.38% # Class of committed instruction (Count)
system.cpu.commit.committedInstType_0::SimdAdd            0      0.00%     78.38% # Class of committed instruction (Count)
system.cpu.commit.committedInstType_0::SimdAddAcc            0      0.00%     78.38% # Class of committed instruction (Count)
system.cpu.commit.committedInstType_0::SimdAlu           94      0.58%     78.96% # Class of committed instruction (Count)
system.cpu.commit.committedInstType_0::SimdCmp            0      0.00%     78.96% # Class of committed instruction (Count)
system.cpu.commit.committedInstType_0::SimdCvt           46      0.28%     79.24% # Class of committed instruction (Count)
system.cpu.commit.committedInstType_0::SimdMisc          215      1.33%     80.57% # Class of committed instruction (Count)
system.cpu.commit.committedInstType_0::SimdMult            0      0.00%     80.57% # Class of committed instruction (Count)
system.cpu.commit.committedInstType_0::SimdMultAcc            0      0.00%     80.57% # Class of committed instruction (Count)
system.cpu.commit.committedInstType_0::SimdShift            0      0.00%     80.57% # Class of committed instruction (Count)
system.cpu.commit.committedInstType_0::SimdShiftAcc            0      0.00%     80.57% # Class of committed instruction (Count)
system.cpu.commit.committedInstType_0::SimdDiv            0      0.00%     80.57% # Class of committed instruction (Count)
system.cpu.commit.committedInstType_0::SimdSqrt            0      0.00%     80.57% # Class of committed instruction (Count)
system.cpu.commit.committedInstType_0::SimdFloatAdd            0      0.00%     80.57% # Class of committed instruction (Count)
system.cpu.commit.committedInstType_0::SimdFloatAlu            0      0.00%     80.57% # Class of committed instruction (Count)
system.cpu.commit.committedInstType_0::SimdFloatCmp            0      0.00%     80.57% # Class of committed instruction (Count)
system.cpu.commit.committedInstType_0::SimdFloatCvt            0      0.00%     80.57% # Class of committed instruction (Count)
system.cpu.commit.committedInstType_0::SimdFloatDiv            0      0.00%     80.57% # Class of committed instruction (Count)
system.cpu.commit.committedInstType_0::SimdFloatMisc            0      0.00%     80.57% # Class of committed instruction (Count)
system.cpu.commit.committedInstType_0::SimdFloatMult            0      0.00%     80.57% # Class of committed instruction (Count)
system.cpu.commit.committedInstType_0::SimdFloatMultAcc            0      0.00%     80.57% # Class of committed instruction (Count)
system.cpu.commit.committedInstType_0::SimdFloatSqrt            0      0.00%     80.57% # Class of committed instruction (Count)
system.cpu.commit.committedInstType_0::SimdReduceAdd            0      0.00%     80.57% # Class of committed instruction (Count)
system.cpu.commit.committedInstType_0::SimdReduceAlu            0      0.00%     80.57% # Class of committed instruction (Count)
system.cpu.commit.committedInstType_0::SimdReduceCmp            0      0.00%     80.57% # Class of committed instruction (Count)
system.cpu.commit.committedInstType_0::SimdFloatReduceAdd            0      0.00%     80.57% # Class of committed instruction (Count)
system.cpu.commit.committedInstType_0::SimdFloatReduceCmp            0      0.00%     80.57% # Class of committed instruction (Count)
system.cpu.commit.committedInstType_0::SimdAes            0      0.00%     80.57% # Class of committed instruction (Count)
system.cpu.commit.committedInstType_0::SimdAesMix            0      0.00%     80.57% # Class of committed instruction (Count)
system.cpu.commit.committedInstType_0::SimdSha1Hash            0      0.00%     80.57% # Class of committed instruction (Count)
system.cpu.commit.committedInstType_0::SimdSha1Hash2            0      0.00%     80.57% # Class of committed instruction (Count)
system.cpu.commit.committedInstType_0::SimdSha256Hash            0      0.00%     80.57% # Class of committed instruction (Count)
system.cpu.commit.committedInstType_0::SimdSha256Hash2            0      0.00%     80.57% # Class of committed instruction (Count)
system.cpu.commit.committedInstType_0::SimdShaSigma2            0      0.00%     80.57% # Class of committed instruction (Count)
system.cpu.commit.committedInstType_0::SimdShaSigma3            0      0.00%     80.57% # Class of committed instruction (Count)
system.cpu.commit.committedInstType_0::SimdPredAlu            0      0.00%     80.57% # Class of committed instruction (Count)
system.cpu.commit.committedInstType_0::MemRead         1480      9.12%     89.69% # Class of committed instruction (Count)
system.cpu.commit.committedInstType_0::MemWrite         1161      7.16%     96.84% # Class of committed instruction (Count)
system.cpu.commit.committedInstType_0::FloatMemRead           54      0.33%     97.18% # Class of committed instruction (Count)
system.cpu.commit.committedInstType_0::FloatMemWrite          458      2.82%    100.00% # Class of committed instruction (Count)
system.cpu.commit.committedInstType_0::IprAccess            0      0.00%    100.00% # Class of committed instruction (Count)
system.cpu.commit.committedInstType_0::InstPrefetch            0      0.00%    100.00% # Class of committed instruction (Count)
system.cpu.commit.committedInstType_0::total        16224                       # Class of committed instruction (Count)
system.cpu.commit.commitEligibleSamples           524                       # number cycles where commit BW limit reached (Cycle)
system.cpu.dcache.demandHits::cpu.data           3638                       # number of demand (read+write) hits (Count)
system.cpu.dcache.demandHits::total              3638                       # number of demand (read+write) hits (Count)
system.cpu.dcache.overallHits::cpu.data          3638                       # number of overall hits (Count)
system.cpu.dcache.overallHits::total             3638                       # number of overall hits (Count)
system.cpu.dcache.demandMisses::cpu.data          362                       # number of demand (read+write) misses (Count)
system.cpu.dcache.demandMisses::total             362                       # number of demand (read+write) misses (Count)
system.cpu.dcache.overallMisses::cpu.data          362                       # number of overall misses (Count)
system.cpu.dcache.overallMisses::total            362                       # number of overall misses (Count)
system.cpu.dcache.demandMissLatency::cpu.data     37739000                       # number of demand (read+write) miss ticks (Tick)
system.cpu.dcache.demandMissLatency::total     37739000                       # number of demand (read+write) miss ticks (Tick)
system.cpu.dcache.overallMissLatency::cpu.data     37739000                       # number of overall miss ticks (Tick)
system.cpu.dcache.overallMissLatency::total     37739000                       # number of overall miss ticks (Tick)
system.cpu.dcache.demandAccesses::cpu.data         4000                       # number of demand (read+write) accesses (Count)
system.cpu.dcache.demandAccesses::total          4000                       # number of demand (read+write) accesses (Count)
system.cpu.dcache.overallAccesses::cpu.data         4000                       # number of overall (read+write) accesses (Count)
system.cpu.dcache.overallAccesses::total         4000                       # number of overall (read+write) accesses (Count)
system.cpu.dcache.demandMissRate::cpu.data     0.090500                       # miss rate for demand accesses (Ratio)
system.cpu.dcache.demandMissRate::total      0.090500                       # miss rate for demand accesses (Ratio)
system.cpu.dcache.overallMissRate::cpu.data     0.090500                       # miss rate for overall accesses (Ratio)
system.cpu.dcache.overallMissRate::total     0.090500                       # miss rate for overall accesses (Ratio)
system.cpu.dcache.demandAvgMissLatency::cpu.data 104251.381215                       # average overall miss latency ((Cycle/Count))
system.cpu.dcache.demandAvgMissLatency::total 104251.381215                       # average overall miss latency ((Cycle/Count))
system.cpu.dcache.overallAvgMissLatency::cpu.data 104251.381215                       # average overall miss latency ((Cycle/Count))
system.cpu.dcache.overallAvgMissLatency::total 104251.381215                       # average overall miss latency ((Cycle/Count))
system.cpu.dcache.blockedCycles::no_mshrs          498                       # number of cycles access was blocked (Cycle)
system.cpu.dcache.blockedCycles::no_targets            0                       # number of cycles access was blocked (Cycle)
system.cpu.dcache.blockedCauses::no_mshrs           17                       # number of times access was blocked (Count)
system.cpu.dcache.blockedCauses::no_targets            0                       # number of times access was blocked (Count)
system.cpu.dcache.avgBlocked::no_mshrs      29.294118                       # average number of cycles each access was blocked ((Cycle/Count))
system.cpu.dcache.avgBlocked::no_targets          nan                       # average number of cycles each access was blocked ((Cycle/Count))
system.cpu.dcache.demandMshrHits::cpu.data          121                       # number of demand (read+write) MSHR hits (Count)
system.cpu.dcache.demandMshrHits::total           121                       # number of demand (read+write) MSHR hits (Count)
system.cpu.dcache.overallMshrHits::cpu.data          121                       # number of overall MSHR hits (Count)
system.cpu.dcache.overallMshrHits::total          121                       # number of overall MSHR hits (Count)
system.cpu.dcache.demandMshrMisses::cpu.data          241                       # number of demand (read+write) MSHR misses (Count)
system.cpu.dcache.demandMshrMisses::total          241                       # number of demand (read+write) MSHR misses (Count)
system.cpu.dcache.overallMshrMisses::cpu.data          241                       # number of overall MSHR misses (Count)
system.cpu.dcache.overallMshrMisses::total          241                       # number of overall MSHR misses (Count)
system.cpu.dcache.demandMshrMissLatency::cpu.data     26534000                       # number of demand (read+write) MSHR miss ticks (Tick)
system.cpu.dcache.demandMshrMissLatency::total     26534000                       # number of demand (read+write) MSHR miss ticks (Tick)
system.cpu.dcache.overallMshrMissLatency::cpu.data     26534000                       # number of overall MSHR miss ticks (Tick)
system.cpu.dcache.overallMshrMissLatency::total     26534000                       # number of overall MSHR miss ticks (Tick)
system.cpu.dcache.demandMshrMissRate::cpu.data     0.060250                       # mshr miss ratio for demand accesses (Ratio)
system.cpu.dcache.demandMshrMissRate::total     0.060250                       # mshr miss ratio for demand accesses (Ratio)
system.cpu.dcache.overallMshrMissRate::cpu.data     0.060250                       # mshr miss ratio for overall accesses (Ratio)
system.cpu.dcache.overallMshrMissRate::total     0.060250                       # mshr miss ratio for overall accesses (Ratio)
system.cpu.dcache.demandAvgMshrMissLatency::cpu.data 110099.585062                       # average overall mshr miss latency ((Cycle/Count))
system.cpu.dcache.demandAvgMshrMissLatency::total 110099.585062                       # average overall mshr miss latency ((Cycle/Count))
system.cpu.dcache.overallAvgMshrMissLatency::cpu.data 110099.585062                       # average overall mshr miss latency ((Cycle/Count))
system.cpu.dcache.overallAvgMshrMissLatency::total 110099.585062                       # average overall mshr miss latency ((Cycle/Count))
system.cpu.dcache.replacements                      0                       # number of replacements (Count)
system.cpu.dcache.ReadReq.hits::cpu.data         2136                       # number of ReadReq hits (Count)
system.cpu.dcache.ReadReq.hits::total            2136                       # number of ReadReq hits (Count)
system.cpu.dcache.ReadReq.misses::cpu.data          244                       # number of ReadReq misses (Count)
system.cpu.dcache.ReadReq.misses::total           244                       # number of ReadReq misses (Count)
system.cpu.dcache.ReadReq.missLatency::cpu.data     24867000                       # number of ReadReq miss ticks (Tick)
system.cpu.dcache.ReadReq.missLatency::total     24867000                       # number of ReadReq miss ticks (Tick)
system.cpu.dcache.ReadReq.accesses::cpu.data         2380                       # number of ReadReq accesses(hits+misses) (Count)
system.cpu.dcache.ReadReq.accesses::total         2380                       # number of ReadReq accesses(hits+misses) (Count)
system.cpu.dcache.ReadReq.missRate::cpu.data     0.102521                       # miss rate for ReadReq accesses (Ratio)
system.cpu.dcache.ReadReq.missRate::total     0.102521                       # miss rate for ReadReq accesses (Ratio)
system.cpu.dcache.ReadReq.avgMissLatency::cpu.data 101913.934426                       # average ReadReq miss latency ((Tick/Count))
system.cpu.dcache.ReadReq.avgMissLatency::total 101913.934426                       # average ReadReq miss latency ((Tick/Count))
system.cpu.dcache.ReadReq.mshrHits::cpu.data          120                       # number of ReadReq MSHR hits (Count)
system.cpu.dcache.ReadReq.mshrHits::total          120                       # number of ReadReq MSHR hits (Count)
system.cpu.dcache.ReadReq.mshrMisses::cpu.data          124                       # number of ReadReq MSHR misses (Count)
system.cpu.dcache.ReadReq.mshrMisses::total          124                       # number of ReadReq MSHR misses (Count)
system.cpu.dcache.ReadReq.mshrMissLatency::cpu.data     13948000                       # number of ReadReq MSHR miss ticks (Tick)
system.cpu.dcache.ReadReq.mshrMissLatency::total     13948000                       # number of ReadReq MSHR miss ticks (Tick)
system.cpu.dcache.ReadReq.mshrMissRate::cpu.data     0.052101                       # mshr miss rate for ReadReq accesses (Ratio)
system.cpu.dcache.ReadReq.mshrMissRate::total     0.052101                       # mshr miss rate for ReadReq accesses (Ratio)
system.cpu.dcache.ReadReq.avgMshrMissLatency::cpu.data 112483.870968                       # average ReadReq mshr miss latency ((Tick/Count))
system.cpu.dcache.ReadReq.avgMshrMissLatency::total 112483.870968                       # average ReadReq mshr miss latency ((Tick/Count))
system.cpu.dcache.WriteReq.hits::cpu.data         1502                       # number of WriteReq hits (Count)
system.cpu.dcache.WriteReq.hits::total           1502                       # number of WriteReq hits (Count)
system.cpu.dcache.WriteReq.misses::cpu.data          118                       # number of WriteReq misses (Count)
system.cpu.dcache.WriteReq.misses::total          118                       # number of WriteReq misses (Count)
system.cpu.dcache.WriteReq.missLatency::cpu.data     12872000                       # number of WriteReq miss ticks (Tick)
system.cpu.dcache.WriteReq.missLatency::total     12872000                       # number of WriteReq miss ticks (Tick)
system.cpu.dcache.WriteReq.accesses::cpu.data         1620                       # number of WriteReq accesses(hits+misses) (Count)
system.cpu.dcache.WriteReq.accesses::total         1620                       # number of WriteReq accesses(hits+misses) (Count)
system.cpu.dcache.WriteReq.missRate::cpu.data     0.072840                       # miss rate for WriteReq accesses (Ratio)
system.cpu.dcache.WriteReq.missRate::total     0.072840                       # miss rate for WriteReq accesses (Ratio)
system.cpu.dcache.WriteReq.avgMissLatency::cpu.data 109084.745763                       # average WriteReq miss latency ((Tick/Count))
system.cpu.dcache.WriteReq.avgMissLatency::total 109084.745763                       # average WriteReq miss latency ((Tick/Count))
system.cpu.dcache.WriteReq.mshrHits::cpu.data            1                       # number of WriteReq MSHR hits (Count)
system.cpu.dcache.WriteReq.mshrHits::total            1                       # number of WriteReq MSHR hits (Count)
system.cpu.dcache.WriteReq.mshrMisses::cpu.data          117                       # number of WriteReq MSHR misses (Count)
system.cpu.dcache.WriteReq.mshrMisses::total          117                       # number of WriteReq MSHR misses (Count)
system.cpu.dcache.WriteReq.mshrMissLatency::cpu.data     12586000                       # number of WriteReq MSHR miss ticks (Tick)
system.cpu.dcache.WriteReq.mshrMissLatency::total     12586000                       # number of WriteReq MSHR miss ticks (Tick)
system.cpu.dcache.WriteReq.mshrMissRate::cpu.data     0.072222                       # mshr miss rate for WriteReq accesses (Ratio)
system.cpu.dcache.WriteReq.mshrMissRate::total     0.072222                       # mshr miss rate for WriteReq accesses (Ratio)
system.cpu.dcache.WriteReq.avgMshrMissLatency::cpu.data 107572.649573                       # average WriteReq mshr miss latency ((Tick/Count))
system.cpu.dcache.WriteReq.avgMshrMissLatency::total 107572.649573                       # average WriteReq mshr miss latency ((Tick/Count))
system.cpu.dcache.power_state.pwrStateResidencyTicks::UNDEFINED     49083000                       # Cumulative time (in ticks) in various power states (Tick)
system.cpu.dcache.tags.tagsInUse           133.468413                       # Average ticks per tags in use ((Tick/Count))
system.cpu.dcache.tags.totalRefs                 3879                       # Total number of references to valid blocks. (Count)
system.cpu.dcache.tags.sampledRefs                241                       # Sample count of references to valid blocks. (Count)
system.cpu.dcache.tags.avgRefs              16.095436                       # Average number of references to valid blocks. ((Count/Count))
system.cpu.dcache.tags.warmupTick              222000                       # The tick when the warmup percentage was hit. (Tick)
system.cpu.dcache.tags.occupancies::cpu.data   133.468413                       # Average occupied blocks per tick, per requestor ((Count/Tick))
system.cpu.dcache.tags.avgOccs::cpu.data     0.130340                       # Average percentage of cache occupancy ((Ratio/Tick))
system.cpu.dcache.tags.avgOccs::total        0.130340                       # Average percentage of cache occupancy ((Ratio/Tick))
system.cpu.dcache.tags.occupanciesTaskId::1024          241                       # Occupied blocks per task id (Count)
system.cpu.dcache.tags.ageTaskId_1024::0           46                       # Occupied blocks per task id, per block age (Count)
system.cpu.dcache.tags.ageTaskId_1024::1          195                       # Occupied blocks per task id, per block age (Count)
system.cpu.dcache.tags.ratioOccsTaskId::1024     0.235352                       # Ratio of occupied blocks and all blocks, per task id (Ratio)
system.cpu.dcache.tags.tagAccesses               8241                       # Number of tag accesses (Count)
system.cpu.dcache.tags.dataAccesses              8241                       # Number of data accesses (Count)
system.cpu.dcache.tags.power_state.pwrStateResidencyTicks::UNDEFINED     49083000                       # Cumulative time (in ticks) in various power states (Tick)
system.cpu.decode.idleCycles                    15044                       # Number of cycles decode is idle (Cycle)
system.cpu.decode.blockedCycles                  8369                       # Number of cycles decode is blocked (Cycle)
system.cpu.decode.runCycles                      4767                       # Number of cycles decode is running (Cycle)
system.cpu.decode.unblockCycles                   467                       # Number of cycles decode is unblocking (Cycle)
system.cpu.decode.squashCycles                    622                       # Number of cycles decode is squashing (Cycle)
system.cpu.decode.branchResolved                 1216                       # Number of times decode resolved a branch (Count)
system.cpu.decode.branchMispred                   226                       # Number of times decode detected a branch misprediction (Count)
system.cpu.decode.decodedInsts                  32916                       # Number of instructions handled by decode (Count)
system.cpu.decode.squashedInsts                   996                       # Number of squashed instructions handled by decode (Count)
system.cpu.fetch.icacheStallCycles              15409                       # Number of cycles fetch is stalled on an Icache miss (Cycle)
system.cpu.fetch.insts                          19268                       # Number of instructions fetch has processed (Count)
system.cpu.fetch.branches                        4044                       # Number of branches that fetch encountered (Count)
system.cpu.fetch.predictedBranches               1387                       # Number of branches that fetch has predicted taken (Count)
system.cpu.fetch.cycles                         11996                       # Number of cycles fetch has run and was not squashing or blocked (Cycle)
system.cpu.fetch.squashCycles                    1682                       # Number of cycles fetch has spent squashing (Cycle)
system.cpu.fetch.miscStallCycles                  141                       # Number of cycles fetch has spent waiting on interrupts, or bad addresses, or out of MSHRs (Cycle)
system.cpu.fetch.pendingTrapStallCycles           815                       # Number of stall cycles due to pending traps (Cycle)
system.cpu.fetch.pendingQuiesceStallCycles            2                       # Number of stall cycles due to pending quiesce instructions (Cycle)
system.cpu.fetch.icacheWaitRetryStallCycles           65                       # Number of stall cycles due to full MSHR (Cycle)
system.cpu.fetch.cacheLines                      2842                       # Number of cache lines fetched (Count)
system.cpu.fetch.icacheSquashes                   400                       # Number of outstanding Icache misses that were squashed (Count)
system.cpu.fetch.nisnDist::samples              29269                       # Number of instructions fetched each cycle (Total) (Count)
system.cpu.fetch.nisnDist::mean              1.262428                       # Number of instructions fetched each cycle (Total) (Count)
system.cpu.fetch.nisnDist::stdev             2.739743                       # Number of instructions fetched each cycle (Total) (Count)
system.cpu.fetch.nisnDist::underflows               0      0.00%      0.00% # Number of instructions fetched each cycle (Total) (Count)
system.cpu.fetch.nisnDist::0                    23416     80.00%     80.00% # Number of instructions fetched each cycle (Total) (Count)
system.cpu.fetch.nisnDist::1                      275      0.94%     80.94% # Number of instructions fetched each cycle (Total) (Count)
system.cpu.fetch.nisnDist::2                      427      1.46%     82.40% # Number of instructions fetched each cycle (Total) (Count)
system.cpu.fetch.nisnDist::3                      372      1.27%     83.67% # Number of instructions fetched each cycle (Total) (Count)
system.cpu.fetch.nisnDist::4                      479      1.64%     85.31% # Number of instructions fetched each cycle (Total) (Count)
system.cpu.fetch.nisnDist::5                      313      1.07%     86.38% # Number of instructions fetched each cycle (Total) (Count)
system.cpu.fetch.nisnDist::6                      215      0.73%     87.11% # Number of instructions fetched each cycle (Total) (Count)
system.cpu.fetch.nisnDist::7                      242      0.83%     87.94% # Number of instructions fetched each cycle (Total) (Count)
system.cpu.fetch.nisnDist::8                     3530     12.06%    100.00% # Number of instructions fetched each cycle (Total) (Count)
system.cpu.fetch.nisnDist::overflows                0      0.00%    100.00% # Number of instructions fetched each cycle (Total) (Count)
system.cpu.fetch.nisnDist::min_value                0                       # Number of instructions fetched each cycle (Total) (Count)
system.cpu.fetch.nisnDist::max_value                8                       # Number of instructions fetched each cycle (Total) (Count)
system.cpu.fetch.nisnDist::total                29269                       # Number of instructions fetched each cycle (Total) (Count)
system.cpu.fetch.branchRate                  0.082389                       # Number of branch fetches per cycle (Ratio)
system.cpu.fetch.rate                        0.392552                       # Number of inst fetches per cycle ((Count/Cycle))
system.cpu.icache.demandHits::cpu.inst           2245                       # number of demand (read+write) hits (Count)
system.cpu.icache.demandHits::total              2245                       # number of demand (read+write) hits (Count)
system.cpu.icache.overallHits::cpu.inst          2245                       # number of overall hits (Count)
system.cpu.icache.overallHits::total             2245                       # number of overall hits (Count)
system.cpu.icache.demandMisses::cpu.inst          597                       # number of demand (read+write) misses (Count)
system.cpu.icache.demandMisses::total             597                       # number of demand (read+write) misses (Count)
system.cpu.icache.overallMisses::cpu.inst          597                       # number of overall misses (Count)
system.cpu.icache.overallMisses::total            597                       # number of overall misses (Count)
system.cpu.icache.demandMissLatency::cpu.inst     57155998                       # number of demand (read+write) miss ticks (Tick)
system.cpu.icache.demandMissLatency::total     57155998                       # number of demand (read+write) miss ticks (Tick)
system.cpu.icache.overallMissLatency::cpu.inst     57155998                       # number of overall miss ticks (Tick)
system.cpu.icache.overallMissLatency::total     57155998                       # number of overall miss ticks (Tick)
system.cpu.icache.demandAccesses::cpu.inst         2842                       # number of demand (read+write) accesses (Count)
system.cpu.icache.demandAccesses::total          2842                       # number of demand (read+write) accesses (Count)
system.cpu.icache.overallAccesses::cpu.inst         2842                       # number of overall (read+write) accesses (Count)
system.cpu.icache.overallAccesses::total         2842                       # number of overall (read+write) accesses (Count)
system.cpu.icache.demandMissRate::cpu.inst     0.210063                       # miss rate for demand accesses (Ratio)
system.cpu.icache.demandMissRate::total      0.210063                       # miss rate for demand accesses (Ratio)
system.cpu.icache.overallMissRate::cpu.inst     0.210063                       # miss rate for overall accesses (Ratio)
system.cpu.icache.overallMissRate::total     0.210063                       # miss rate for overall accesses (Ratio)
system.cpu.icache.demandAvgMissLatency::cpu.inst 95738.690117                       # average overall miss latency ((Cycle/Count))
system.cpu.icache.demandAvgMissLatency::total 95738.690117                       # average overall miss latency ((Cycle/Count))
system.cpu.icache.overallAvgMissLatency::cpu.inst 95738.690117                       # average overall miss latency ((Cycle/Count))
system.cpu.icache.overallAvgMissLatency::total 95738.690117                       # average overall miss latency ((Cycle/Count))
system.cpu.icache.blockedCycles::no_mshrs          223                       # number of cycles access was blocked (Cycle)
system.cpu.icache.blockedCycles::no_targets            0                       # number of cycles access was blocked (Cycle)
system.cpu.icache.blockedCauses::no_mshrs            5                       # number of times access was blocked (Count)
system.cpu.icache.blockedCauses::no_targets            0                       # number of times access was blocked (Count)
system.cpu.icache.avgBlocked::no_mshrs      44.600000                       # average number of cycles each access was blocked ((Cycle/Count))
system.cpu.icache.avgBlocked::no_targets          nan                       # average number of cycles each access was blocked ((Cycle/Count))
system.cpu.icache.demandMshrHits::cpu.inst          135                       # number of demand (read+write) MSHR hits (Count)
system.cpu.icache.demandMshrHits::total           135                       # number of demand (read+write) MSHR hits (Count)
system.cpu.icache.overallMshrHits::cpu.inst          135                       # number of overall MSHR hits (Count)
system.cpu.icache.overallMshrHits::total          135                       # number of overall MSHR hits (Count)
system.cpu.icache.demandMshrMisses::cpu.inst          462                       # number of demand (read+write) MSHR misses (Count)
system.cpu.icache.demandMshrMisses::total          462                       # number of demand (read+write) MSHR misses (Count)
system.cpu.icache.overallMshrMisses::cpu.inst          462                       # number of overall MSHR misses (Count)
system.cpu.icache.overallMshrMisses::total          462                       # number of overall MSHR misses (Count)
system.cpu.icache.demandMshrMissLatency::cpu.inst     46905998                       # number of demand (read+write) MSHR miss ticks (Tick)
system.cpu.icache.demandMshrMissLatency::total     46905998                       # number of demand (read+write) MSHR miss ticks (Tick)
system.cpu.icache.overallMshrMissLatency::cpu.inst     46905998                       # number of overall MSHR miss ticks (Tick)
system.cpu.icache.overallMshrMissLatency::total     46905998                       # number of overall MSHR miss ticks (Tick)
system.cpu.icache.demandMshrMissRate::cpu.inst     0.162562                       # mshr miss ratio for demand accesses (Ratio)
system.cpu.icache.demandMshrMissRate::total     0.162562                       # mshr miss ratio for demand accesses (Ratio)
system.cpu.icache.overallMshrMissRate::cpu.inst     0.162562                       # mshr miss ratio for overall accesses (Ratio)
system.cpu.icache.overallMshrMissRate::total     0.162562                       # mshr miss ratio for overall accesses (Ratio)
system.cpu.icache.demandAvgMshrMissLatency::cpu.inst 101528.134199                       # average overall mshr miss latency ((Cycle/Count))
[...]
system.mem_ctrl.requestorReadAvgLat::cpu.inst     27391.00                       # Per-requestor read average memory access latency ((Tick/Count))
system.mem_ctrl.requestorReadAvgLat::cpu.data     35676.35                       # Per-requestor read average memory access latency ((Tick/Count))
system.mem_ctrl.dram.bytesRead::cpu.inst        29504                       # Number of bytes read from this memory (Byte)
system.mem_ctrl.dram.bytesRead::cpu.data        15424                       # Number of bytes read from this memory (Byte)
system.mem_ctrl.dram.bytesRead::total           44928                       # Number of bytes read from this memory (Byte)
system.mem_ctrl.dram.bytesInstRead::cpu.inst        29504                       # Number of instructions bytes read from this memory (Byte)
system.mem_ctrl.dram.bytesInstRead::total        29504                       # Number of instructions bytes read from this memory (Byte)
system.mem_ctrl.dram.numReads::cpu.inst           461                       # Number of read requests responded to by this memory (Count)
system.mem_ctrl.dram.numReads::cpu.data           241                       # Number of read requests responded to by this memory (Count)
system.mem_ctrl.dram.numReads::total              702                       # Number of read requests responded to by this memory (Count)
system.mem_ctrl.dram.bwRead::cpu.inst       601104252                       # Total read bandwidth from this memory ((Byte/Second))
system.mem_ctrl.dram.bwRead::cpu.data       314243221                       # Total read bandwidth from this memory ((Byte/Second))
system.mem_ctrl.dram.bwRead::total          915347473                       # Total read bandwidth from this memory ((Byte/Second))
system.mem_ctrl.dram.bwInstRead::cpu.inst    601104252                       # Instruction read bandwidth from this memory ((Byte/Second))
system.mem_ctrl.dram.bwInstRead::total      601104252                       # Instruction read bandwidth from this memory ((Byte/Second))
system.mem_ctrl.dram.bwTotal::cpu.inst      601104252                       # Total bandwidth to/from this memory ((Byte/Second))
system.mem_ctrl.dram.bwTotal::cpu.data      314243221                       # Total bandwidth to/from this memory ((Byte/Second))
system.mem_ctrl.dram.bwTotal::total         915347473                       # Total bandwidth to/from this memory ((Byte/Second))
system.mem_ctrl.dram.readBursts                   702                       # Number of DRAM read bursts (Count)
system.mem_ctrl.dram.writeBursts                    0                       # Number of DRAM write bursts (Count)
system.mem_ctrl.dram.perBankRdBursts::0            92                       # Per bank write bursts (Count)
system.mem_ctrl.dram.perBankRdBursts::1            90                       # Per bank write bursts (Count)
system.mem_ctrl.dram.perBankRdBursts::2            17                       # Per bank write bursts (Count)
system.mem_ctrl.dram.perBankRdBursts::3            54                       # Per bank write bursts (Count)
system.mem_ctrl.dram.perBankRdBursts::4             7                       # Per bank write bursts (Count)
system.mem_ctrl.dram.perBankRdBursts::5            13                       # Per bank write bursts (Count)
system.mem_ctrl.dram.perBankRdBursts::6            72                       # Per bank write bursts (Count)
system.mem_ctrl.dram.perBankRdBursts::7            39                       # Per bank write bursts (Count)
system.mem_ctrl.dram.perBankRdBursts::8            11                       # Per bank write bursts (Count)
system.mem_ctrl.dram.perBankRdBursts::9            14                       # Per bank write bursts (Count)
system.mem_ctrl.dram.perBankRdBursts::10           10                       # Per bank write bursts (Count)
system.mem_ctrl.dram.perBankRdBursts::11           35                       # Per bank write bursts (Count)
system.mem_ctrl.dram.perBankRdBursts::12           54                       # Per bank write bursts (Count)
system.mem_ctrl.dram.perBankRdBursts::13           21                       # Per bank write bursts (Count)
system.mem_ctrl.dram.perBankRdBursts::14           68                       # Per bank write bursts (Count)
system.mem_ctrl.dram.perBankRdBursts::15          105                       # Per bank write bursts (Count)
system.mem_ctrl.dram.perBankWrBursts::0             0                       # Per bank write bursts (Count)
system.mem_ctrl.dram.perBankWrBursts::1             0                       # Per bank write bursts (Count)
system.mem_ctrl.dram.perBankWrBursts::2             0                       # Per bank write bursts (Count)
system.mem_ctrl.dram.perBankWrBursts::3             0                       # Per bank write bursts (Count)
system.mem_ctrl.dram.perBankWrBursts::4             0                       # Per bank write bursts (Count)
system.mem_ctrl.dram.perBankWrBursts::5             0                       # Per bank write bursts (Count)
system.mem_ctrl.dram.perBankWrBursts::6             0                       # Per bank write bursts (Count)
system.mem_ctrl.dram.perBankWrBursts::7             0                       # Per bank write bursts (Count)
system.mem_ctrl.dram.perBankWrBursts::8             0                       # Per bank write bursts (Count)
system.mem_ctrl.dram.perBankWrBursts::9             0                       # Per bank write bursts (Count)
system.mem_ctrl.dram.perBankWrBursts::10            0                       # Per bank write bursts (Count)
system.mem_ctrl.dram.perBankWrBursts::11            0                       # Per bank write bursts (Count)
system.mem_ctrl.dram.perBankWrBursts::12            0                       # Per bank write bursts (Count)
system.mem_ctrl.dram.perBankWrBursts::13            0                       # Per bank write bursts (Count)
system.mem_ctrl.dram.perBankWrBursts::14            0                       # Per bank write bursts (Count)
system.mem_ctrl.dram.perBankWrBursts::15            0                       # Per bank write bursts (Count)
system.mem_ctrl.dram.totQLat                  8062750                       # Total ticks spent queuing (Tick)
system.mem_ctrl.dram.totBusLat                3510000                       # Total ticks spent in databus transfers (Tick)
system.mem_ctrl.dram.totMemAccLat            21225250                       # Total ticks spent from burst creation until serviced by the DRAM (Tick)
system.mem_ctrl.dram.avgQLat                 11485.40                       # Average queueing delay per DRAM burst ((Tick/Count))
system.mem_ctrl.dram.avgBusLat                5000.00                       # Average bus latency per DRAM burst ((Tick/Count))
system.mem_ctrl.dram.avgMemAccLat            30235.40                       # Average memory access latency per DRAM burst ((Tick/Count))
system.mem_ctrl.dram.readRowHits                  519                       # Number of row buffer hits during reads (Count)
system.mem_ctrl.dram.writeRowHits                   0                       # Number of row buffer hits during writes (Count)
system.mem_ctrl.dram.readRowHitRate             73.93                       # Row buffer hit rate for reads (Ratio)
system.mem_ctrl.dram.writeRowHitRate              nan                       # Row buffer hit rate for writes (Ratio)
system.mem_ctrl.dram.bytesPerActivate::samples          179                       # Bytes accessed per row activation (Byte)
system.mem_ctrl.dram.bytesPerActivate::mean   245.273743                       # Bytes accessed per row activation (Byte)
system.mem_ctrl.dram.bytesPerActivate::gmean   157.761397                       # Bytes accessed per row activation (Byte)
system.mem_ctrl.dram.bytesPerActivate::stdev   269.955444                       # Bytes accessed per row activation (Byte)
system.mem_ctrl.dram.bytesPerActivate::0-127           66     36.87%     36.87% # Bytes accessed per row activation (Byte)
system.mem_ctrl.dram.bytesPerActivate::128-255           57     31.84%     68.72% # Bytes accessed per row activation (Byte)
system.mem_ctrl.dram.bytesPerActivate::256-383           21     11.73%     80.45% # Bytes accessed per row activation (Byte)
system.mem_ctrl.dram.bytesPerActivate::384-511           11      6.15%     86.59% # Bytes accessed per row activation (Byte)
system.mem_ctrl.dram.bytesPerActivate::512-639            5      2.79%     89.39% # Bytes accessed per row activation (Byte)
system.mem_ctrl.dram.bytesPerActivate::640-767            3      1.68%     91.06% # Bytes accessed per row activation (Byte)
system.mem_ctrl.dram.bytesPerActivate::768-895            2      1.12%     92.18% # Bytes accessed per row activation (Byte)
system.mem_ctrl.dram.bytesPerActivate::896-1023            2      1.12%     93.30% # Bytes accessed per row activation (Byte)
system.mem_ctrl.dram.bytesPerActivate::1024-1151           12      6.70%    100.00% # Bytes accessed per row activation (Byte)
system.mem_ctrl.dram.bytesPerActivate::total          179                       # Bytes accessed per row activation (Byte)
system.mem_ctrl.dram.bytesRead                  44928                       # Total bytes read (Byte)
system.mem_ctrl.dram.bytesWritten                   0                       # Total bytes written (Byte)
system.mem_ctrl.dram.avgRdBW               915.347473                       # Average DRAM read bandwidth in MiBytes/s ((Byte/Second))
system.mem_ctrl.dram.avgWrBW                        0                       # Average DRAM write bandwidth in MiBytes/s ((Byte/Second))
system.mem_ctrl.dram.peakBW                  12800.00                       # Theoretical peak bandwidth in MiByte/s ((Byte/Second))
system.mem_ctrl.dram.busUtil                     7.15                       # Data bus utilization in percentage (Ratio)
system.mem_ctrl.dram.busUtilRead                 7.15                       # Data bus utilization in percentage for reads (Ratio)
system.mem_ctrl.dram.busUtilWrite                0.00                       # Data bus utilization in percentage for writes (Ratio)
system.mem_ctrl.dram.pageHitRate                73.93                       # Row buffer hit rate, read and write combined (Ratio)
system.mem_ctrl.dram.power_state.pwrStateResidencyTicks::UNDEFINED     49083000                       # Cumulative time (in ticks) in various power states (Tick)
system.mem_ctrl.dram.rank0.actEnergy           806820                       # Energy for activate commands per rank (pJ) (Joule)
system.mem_ctrl.dram.rank0.preEnergy           421245                       # Energy for precharge commands per rank (pJ) (Joule)
system.mem_ctrl.dram.rank0.readEnergy         2741760                       # Energy for read commands per rank (pJ) (Joule)
system.mem_ctrl.dram.rank0.writeEnergy              0                       # Energy for write commands per rank (pJ) (Joule)
system.mem_ctrl.dram.rank0.refreshEnergy 3687840.000000                       # Energy for refresh commands per rank (pJ) (Joule)
system.mem_ctrl.dram.rank0.actBackEnergy     20818680                       # Energy for active background per rank (pJ) (Joule)
system.mem_ctrl.dram.rank0.preBackEnergy      1316640                       # Energy for precharge background per rank (pJ) (Joule)
system.mem_ctrl.dram.rank0.actPowerDownEnergy            0                       # Energy for active power-down per rank (pJ) (Joule)
system.mem_ctrl.dram.rank0.prePowerDownEnergy            0                       # Energy for precharge power-down per rank (pJ) (Joule)
system.mem_ctrl.dram.rank0.selfRefreshEnergy            0                       # Energy for self refresh per rank (pJ) (Joule)
system.mem_ctrl.dram.rank0.totalEnergy       29792985                       # Total energy per rank (pJ) (Joule)
system.mem_ctrl.dram.rank0.averagePower    606.991932                       # Core power per rank (mW) (Watt)
system.mem_ctrl.dram.rank0.totalIdleTime            0                       # Total Idle time Per DRAM Rank (Tick)
system.mem_ctrl.dram.rank0.pwrStateTime::IDLE      3261750                       # Time in different power states (Tick)
system.mem_ctrl.dram.rank0.pwrStateTime::REF      1560000                       # Time in different power states (Tick)
system.mem_ctrl.dram.rank0.pwrStateTime::SREF            0                       # Time in different power states (Tick)
system.mem_ctrl.dram.rank0.pwrStateTime::PRE_PDN            0                       # Time in different power states (Tick)
system.mem_ctrl.dram.rank0.pwrStateTime::ACT     44261250                       # Time in different power states (Tick)
system.mem_ctrl.dram.rank0.pwrStateTime::ACT_PDN            0                       # Time in different power states (Tick)
system.mem_ctrl.dram.rank1.actEnergy           499800                       # Energy for activate commands per rank (pJ) (Joule)
system.mem_ctrl.dram.rank1.preEnergy           258060                       # Energy for precharge commands per rank (pJ) (Joule)
system.mem_ctrl.dram.rank1.readEnergy         2270520                       # Energy for read commands per rank (pJ) (Joule)
system.mem_ctrl.dram.rank1.writeEnergy              0                       # Energy for write commands per rank (pJ) (Joule)
system.mem_ctrl.dram.rank1.refreshEnergy 3687840.000000                       # Energy for refresh commands per rank (pJ) (Joule)
system.mem_ctrl.dram.rank1.actBackEnergy     21654300                       # Energy for active background per rank (pJ) (Joule)
system.mem_ctrl.dram.rank1.preBackEnergy       612960                       # Energy for precharge background per rank (pJ) (Joule)
system.mem_ctrl.dram.rank1.actPowerDownEnergy            0                       # Energy for active power-down per rank (pJ) (Joule)
system.mem_ctrl.dram.rank1.prePowerDownEnergy            0                       # Energy for precharge power-down per rank (pJ) (Joule)
system.mem_ctrl.dram.rank1.selfRefreshEnergy            0                       # Energy for self refresh per rank (pJ) (Joule)
system.mem_ctrl.dram.rank1.totalEnergy       28983480                       # Total energy per rank (pJ) (Joule)
system.mem_ctrl.dram.rank1.averagePower    590.499358                       # Core power per rank (mW) (Watt)
system.mem_ctrl.dram.rank1.totalIdleTime            0                       # Total Idle time Per DRAM Rank (Tick)
system.mem_ctrl.dram.rank1.pwrStateTime::IDLE      1415750                       # Time in different power states (Tick)
system.mem_ctrl.dram.rank1.pwrStateTime::REF      1560000                       # Time in different power states (Tick)
system.mem_ctrl.dram.rank1.pwrStateTime::SREF            0                       # Time in different power states (Tick)
system.mem_ctrl.dram.rank1.pwrStateTime::PRE_PDN            0                       # Time in different power states (Tick)
system.mem_ctrl.dram.rank1.pwrStateTime::ACT     46107250                       # Time in different power states (Tick)
system.mem_ctrl.dram.rank1.pwrStateTime::ACT_PDN            0                       # Time in different power states (Tick)
system.mem_ctrl.power_state.pwrStateResidencyTicks::UNDEFINED     49083000                       # Cumulative time (in ticks) in various power states (Tick)
system.membus.transDist::ReadResp                 585                       # Transaction distribution (Count)
system.membus.transDist::ReadExReq                117                       # Transaction distribution (Count)
system.membus.transDist::ReadExResp               117                       # Transaction distribution (Count)
system.membus.transDist::ReadSharedReq            585                       # Transaction distribution (Count)
system.membus.pktCount_system.L2cache.mem_side_port::system.mem_ctrl.port         1404                       # Packet count per connected requestor and responder (Count)
system.membus.pktCount_system.L2cache.mem_side_port::total         1404                       # Packet count per connected requestor and responder (Count)
system.membus.pktCount::total                    1404                       # Packet count per connected requestor and responder (Count)
system.membus.pktSize_system.L2cache.mem_side_port::system.mem_ctrl.port        44928                       # Cumulative packet size per connected requestor and responder (Byte)
system.membus.pktSize_system.L2cache.mem_side_port::total        44928                       # Cumulative packet size per connected requestor and responder (Byte)
system.membus.pktSize::total                    44928                       # Cumulative packet size per connected requestor and responder (Byte)
system.membus.snoops                                0                       # Total snoops (Count)
system.membus.snoopTraffic                          0                       # Total snoop traffic (Byte)
system.membus.snoopFanout::samples                702                       # Request fanout histogram (Count)
system.membus.snoopFanout::mean                     0                       # Request fanout histogram (Count)
system.membus.snoopFanout::stdev                    0                       # Request fanout histogram (Count)
system.membus.snoopFanout::underflows               0      0.00%      0.00% # Request fanout histogram (Count)
system.membus.snoopFanout::0                      702    100.00%    100.00% # Request fanout histogram (Count)
system.membus.snoopFanout::1                        0      0.00%    100.00% # Request fanout histogram (Count)
system.membus.snoopFanout::overflows                0      0.00%    100.00% # Request fanout histogram (Count)
system.membus.snoopFanout::min_value                0                       # Request fanout histogram (Count)
system.membus.snoopFanout::max_value                0                       # Request fanout histogram (Count)
system.membus.snoopFanout::total                  702                       # Request fanout histogram (Count)
system.membus.power_state.pwrStateResidencyTicks::UNDEFINED     49083000                       # Cumulative time (in ticks) in various power states (Tick)
system.membus.reqLayer2.occupancy              702000                       # Layer occupancy (ticks) (Tick)
system.membus.reqLayer2.utilization               0.0                       # Layer utilization (Ratio)
system.membus.respLayer0.occupancy            3728000                       # Layer occupancy (ticks) (Tick)
system.membus.respLayer0.utilization              0.1                       # Layer utilization (Ratio)
system.membus.snoop_filter.totRequests            702                       # Total number of requests made to the snoop filter. (Count)
system.membus.snoop_filter.hitSingleRequests            0                       # Number of requests hitting in the snoop filter with a single holder of the requested data. (Count)
system.membus.snoop_filter.hitMultiRequests            0                       # Number of requests hitting in the snoop filter with multiple (>1) holders of the requested data. (Count)
system.membus.snoop_filter.totSnoops                0                       # Total number of snoops made to the snoop filter. (Count)
system.membus.snoop_filter.hitSingleSnoops            0                       # Number of snoops hitting in the snoop filter with a single holder of the requested data. (Count)
system.membus.snoop_filter.hitMultiSnoops            0                       # Number of snoops hitting in the snoop filter with multiple (>1) holders of the requested data. (Count)
system.workload.inst.arm                            0                       # number of arm instructions executed (Count)
system.workload.inst.quiesce                        0                       # number of quiesce instructions executed (Count)

---------- End Simulation Statistics   ----------
